Luteolin
  AfroDiabDB_Exporter

  0  0  0  0  0  0  0  0  0  0999 V2000
M  END
> <Compound_ID>
AFRO-0001

> <Compound_Name>
Luteolin

> <Plant_Name>
Vernonia amygdalina

> <Common_Name>
Bitter Leaf

> <Plant_Family>
Asteraceae

> <Plant_Part>
Leaf; Root

> <Country_of_Use>
Nigeria

> <PubChem_CID>
5280445

> <Canonical_SMILES>
O=c1cc(-c2ccc(O)c(O)c2)oc2cc(O)cc(O)c12

> <InChIKey>
IQPNAANSBPBGFQ-UHFFFAOYSA-N

> <Molecular_Formula>
C15H10O6

> <Molecular_Weight>
286.239

> <LogP>
2.2824

> <HBD>
4

> <HBA>
6

> <TPSA>
111.13

> <Rotatable_Bonds>
1

> <Lipinski_Violations>
0

> <Lipinski_Status>
Pass

> <Reported_Activity>
α-Glucosidase inhibition, AGEs inhibition, and potent antioxidant activity

> <Assay_Target>
In vitro enzymatic & BSA glycation assays

> <DOI_Reference>
10.1155/2023/3159352

> <Reference_Year>
2023

> <Compound_Class>
Flavone

> <Compound_Superclass>
Flavonoid

> <Data_Source>
Journal of Diabetes Research (Hindawi / Wiley)

> <Notes>
Standardized from v1.0 release

> <Validation_Status>
Verified

> <Fraction_CSP3>
0.0

> <Ring_Count>
3

> <Aromatic_Ring_Count>
3

> <Heavy_Atom_Count>
21

> <Molar_Refractivity>
74.5792

> <QED_Score>
0.5106223467843569

> <Veber_Status>
Pass

> <Ghose_Violations>
0

> <Ghose_Status>
Pass

$$$$
Vernodalol
  AfroDiabDB_Exporter

  0  0  0  0  0  0  0  0  0  0999 V2000
M  END
> <Compound_ID>
AFRO-0002

> <Compound_Name>
Vernodalol

> <Plant_Name>
Vernonia amygdalina

> <Common_Name>
Bitter Leaf

> <Plant_Family>
Asteraceae

> <Plant_Part>
Leaf; Root

> <Country_of_Use>
Nigeria

> <PubChem_CID>
442994

> <Canonical_SMILES>
C=C(CO)C(=O)OC1CC2C(=C)C(=O)OC2C(O)C(C(=C)C)C1=O

> <InChIKey>
FFNBPGORUWEHOO-UHFFFAOYSA-N

> <Molecular_Formula>
C17H20O7

> <Molecular_Weight>
336.3400000000001

> <LogP>
0.07049999999999979

> <HBD>
2

> <HBA>
7

> <TPSA>
110.13

> <Rotatable_Bonds>
4

> <Lipinski_Violations>
0

> <Lipinski_Status>
Pass

> <Reported_Activity>
α-Glucosidase inhibition, AGEs inhibition, and antioxidant activity

> <Assay_Target>
In vitro enzymatic & BSA glycation assays

> <DOI_Reference>
10.1155/2023/3159352

> <Reference_Year>
2023

> <Compound_Class>
Sesquiterpene lactone

> <Compound_Superclass>
Terpenoid

> <Data_Source>
Journal of Diabetes Research (Hindawi / Wiley)

> <Notes>
Standardized from v1.0 release

> <Validation_Status>
Verified

> <Fraction_CSP3>
0.4705882352941176

> <Ring_Count>
2

> <Aromatic_Ring_Count>
0

> <Heavy_Atom_Count>
24

> <Molar_Refractivity>
82.55060000000002

> <QED_Score>
0.4245374793830468

> <Veber_Status>
Pass

> <Ghose_Violations>
0

> <Ghose_Status>
Pass

$$$$
Catechin
  AfroDiabDB_Exporter

  0  0  0  0  0  0  0  0  0  0999 V2000
M  END
> <Compound_ID>
AFRO-0003

> <Compound_Name>
Catechin

> <Plant_Name>
Vernonia amygdalina

> <Common_Name>
Bitter Leaf

> <Plant_Family>
Asteraceae

> <Plant_Part>
Leaf; Root

> <Country_of_Use>
Nigeria

> <PubChem_CID>
9064

> <Canonical_SMILES>
Oc1cc(O)c2c(c1)OC(c1ccc(O)c(O)c1)C(O)C2

> <InChIKey>
PFTAWBLQPZVEMU-UHFFFAOYSA-N

> <Molecular_Formula>
C15H14O6

> <Molecular_Weight>
290.271

> <LogP>
1.5461

> <HBD>
5

> <HBA>
6

> <TPSA>
110.38

> <Rotatable_Bonds>
1

> <Lipinski_Violations>
0

> <Lipinski_Status>
Pass

> <Reported_Activity>
α-Glucosidase inhibition, AGEs formation inhibition, and oxygen radical absorbance capacity

> <Assay_Target>
In vitro enzymatic & radical absorbance assays  In vitro enzymatic & radical absorbance assays

> <DOI_Reference>
10.1155/2023/3159352

> <Reference_Year>
2023

> <Compound_Class>
Flavanol

> <Compound_Superclass>
Flavonoid

> <Data_Source>
Journal of Diabetes Research (Hindawi / Wiley)

> <Notes>
Standardized from v1.0 release

> <Validation_Status>
Verified

> <Fraction_CSP3>
0.2

> <Ring_Count>
3

> <Aromatic_Ring_Count>
2

> <Heavy_Atom_Count>
21

> <Molar_Refractivity>
72.62300000000002

> <QED_Score>
0.5095927314649248

> <Veber_Status>
Pass

> <Ghose_Violations>
0

> <Ghose_Status>
Pass

$$$$
Caffeic Acid
  AfroDiabDB_Exporter

  0  0  0  0  0  0  0  0  0  0999 V2000
M  END
> <Compound_ID>
AFRO-0004

> <Compound_Name>
Caffeic Acid

> <Plant_Name>
Vernonia amygdalina

> <Common_Name>
Bitter Leaf

> <Plant_Family>
Asteraceae

> <Plant_Part>
Leaf; Root

> <Country_of_Use>
Nigeria

> <PubChem_CID>
689043

> <Canonical_SMILES>
O=C(O)C=Cc1ccc(O)c(O)c1

> <InChIKey>
QAIPRVGONGVQAS-UHFFFAOYSA-N

> <Molecular_Formula>
C9H8O4

> <Molecular_Weight>
180.159

> <LogP>
1.1956

> <HBD>
3

> <HBA>
3

> <TPSA>
77.76

> <Rotatable_Bonds>
2

> <Lipinski_Violations>
0

> <Lipinski_Status>
Pass

> <Reported_Activity>
α-Glucosidase inhibition, AGEs formation inhibition, and oxygen radical absorbance capacity

> <Assay_Target>
In vitro enzymatic & radical absorbance assays

> <DOI_Reference>
10.1155/2023/3159352

> <Reference_Year>
2023

> <Compound_Class>
Phenolic acid

> <Compound_Superclass>
Phenolic Compound

> <Data_Source>
Journal of Diabetes Research (Hindawi / Wiley)

> <Notes>
Standardized from v1.0 release

> <Validation_Status>
Verified

> <Fraction_CSP3>
0.0

> <Ring_Count>
1

> <Aromatic_Ring_Count>
1

> <Heavy_Atom_Count>
13

> <Molar_Refractivity>
46.44140000000002

> <QED_Score>
0.4716213331416678

> <Veber_Status>
Pass

> <Ghose_Violations>
1

> <Ghose_Status>
Fail

$$$$
Epicatechin
  AfroDiabDB_Exporter

  0  0  0  0  0  0  0  0  0  0999 V2000
M  END
> <Compound_ID>
AFRO-0005

> <Compound_Name>
Epicatechin

> <Plant_Name>
Moringa oleifera

> <Common_Name>
Miracle Tree

> <Plant_Family>
Moringaceae

> <Plant_Part>
Leaf

> <Country_of_Use>
Nigeria

> <PubChem_CID>
72276

> <Canonical_SMILES>
Oc1cc(O)c2c(c1)O[C@H](c1ccc(O)c(O)c1)[C@H](O)C2

> <InChIKey>
PFTAWBLQPZVEMU-UKRRQHHQSA-N

> <Molecular_Formula>
C15H14O6

> <Molecular_Weight>
290.271

> <LogP>
1.5461

> <HBD>
5

> <HBA>
6

> <TPSA>
110.38

> <Rotatable_Bonds>
1

> <Lipinski_Violations>
0

> <Lipinski_Status>
Pass

> <Reported_Activity>
Potential PPAR-γ receptor agonist / Anti-diabetic

> <Assay_Target>
Peroxisome Proliferator-Activated Receptor Gamma (PPAR-γ, PDB ID: 8DK4)

> <DOI_Reference>
10.1515/chem-2025-0216

> <Reference_Year>
2025

> <Compound_Class>
Flavanol

> <Compound_Superclass>
Flavonoid

> <Data_Source>
Open Chemistry (De Gruyter)

> <Notes>
Selected via MD simulation and MM-PBSA

> <Validation_Status>
Verified

> <Fraction_CSP3>
0.2

> <Ring_Count>
3

> <Aromatic_Ring_Count>
2

> <Heavy_Atom_Count>
21

> <Molar_Refractivity>
72.62300000000002

> <QED_Score>
0.5095927314649248

> <Veber_Status>
Pass

> <Ghose_Violations>
0

> <Ghose_Status>
Pass

$$$$
Genistein
  AfroDiabDB_Exporter

  0  0  0  0  0  0  0  0  0  0999 V2000
M  END
> <Compound_ID>
AFRO-0006

> <Compound_Name>
Genistein

> <Plant_Name>
Moringa oleifera

> <Common_Name>
Miracle Tree

> <Plant_Family>
Moringaceae

> <Plant_Part>
Leaf

> <Country_of_Use>
Nigeria

> <PubChem_CID>
5280961

> <Canonical_SMILES>
O=c1c(-c2ccc(O)cc2)coc2cc(O)cc(O)c12

> <InChIKey>
TZBJGXHYKVUXJN-UHFFFAOYSA-N

> <Molecular_Formula>
C15H10O5

> <Molecular_Weight>
270.24

> <LogP>
2.576800000000001

> <HBD>
3

> <HBA>
5

> <TPSA>
90.9

> <Rotatable_Bonds>
1

> <Lipinski_Violations>
0

> <Lipinski_Status>
Pass

> <Reported_Activity>
Potential PPAR-γ receptor agonist / Anti-diabetic

> <Assay_Target>
Peroxisome Proliferator-Activated Receptor Gamma (PPAR-γ, PDB ID: 8DK4

> <DOI_Reference>
10.1515/chem-2025-0216

> <Reference_Year>
2025

> <Compound_Class>
Isoflavone

> <Compound_Superclass>
Flavonoid

> <Data_Source>
Open Chemistry (De Gruyter)

> <Notes>
Selected via MD simulation and MM-PBSA

> <Validation_Status>
Verified

> <Fraction_CSP3>
0.0

> <Ring_Count>
3

> <Aromatic_Ring_Count>
3

> <Heavy_Atom_Count>
20

> <Molar_Refractivity>
72.91440000000001

> <QED_Score>
0.6318329361180623

> <Veber_Status>
Pass

> <Ghose_Violations>
0

> <Ghose_Status>
Pass

$$$$
Glucomoringin
  AfroDiabDB_Exporter

  0  0  0  0  0  0  0  0  0  0999 V2000
M  END
> <Compound_ID>
AFRO-0007

> <Compound_Name>
Glucomoringin

> <Plant_Name>
Moringa oleifera

> <Common_Name>
Miracle Tree

> <Plant_Family>
Moringaceae

> <Plant_Part>
Leaf

> <Country_of_Use>
Nigeria

> <PubChem_CID>
70678595

> <Canonical_SMILES>
C1=CC(=CC=C1C[C@@N](C(=NO)/S(=O)(=O)[O-])S[C@H]2[C@@H]([C@H]([C@@H]([C@H](O2)CO)O)O)O)

> <InChIKey>
GCSWWPVDMVEJNW-RTYBTHDYSA-N

> <Molecular_Formula>
C14H19NO10S2

> <Molecular_Weight>
270.24

> <LogP>
2.576800000000001

> <HBD>
3

> <HBA>
5

> <TPSA>
90.9

> <Rotatable_Bonds>
1

> <Lipinski_Violations>
0

> <Lipinski_Status>
Pass

> <Reported_Activity>
Potential PPAR-γ receptor agonist / Anti-diabetic

> <Assay_Target>
PPAR-γ (PDB ID: 8DK4)

> <DOI_Reference>
10.1515/chem-2025-0216

> <Reference_Year>
2025

> <Compound_Class>
Glucosinolate

> <Compound_Superclass>
Organosulfur Compound

> <Data_Source>
Open Chemistry (De Gruyter)

> <Notes>
Selected via MD simulation and MM-PBSA

> <Validation_Status>
Verified

> <Fraction_CSP3>
0.65

> <Ring_Count>
3

> <Aromatic_Ring_Count>
1

> <Heavy_Atom_Count>
37

> <Molar_Refractivity>
72.91440000000001

> <QED_Score>
0.6318329361180623

> <Veber_Status>
Pass

> <Ghose_Violations>
0

> <Ghose_Status>
Pass

$$$$
Isoquercetin
  AfroDiabDB_Exporter

  0  0  0  0  0  0  0  0  0  0999 V2000
M  END
> <Compound_ID>
AFRO-0008

> <Compound_Name>
Isoquercetin

> <Plant_Name>
Moringa oleifera

> <Common_Name>
Miracle Tree

> <Plant_Family>
Moringaceae

> <Plant_Part>
Leaf

> <Country_of_Use>
Nigeria

> <PubChem_CID>
5280804

> <Canonical_SMILES>
O=c1c(O[C@@H]2O[C@H](CO)[C@@H](O)[C@H](O)[C@H]2O)c(-c2ccc(O)c(O)c2)oc2cc(O)cc(O)c12

> <InChIKey>
OVSQVDMCBVZWGM-QSOFNFLRSA-N

> <Molecular_Formula>
C21H20O12

> <Molecular_Weight>
464.3790000000002

> <LogP>
-0.5388999999999995

> <HBD>
8

> <HBA>
12

> <TPSA>
210.51

> <Rotatable_Bonds>
4

> <Lipinski_Violations>
2

> <Lipinski_Status>
Fail

> <Reported_Activity>
Potential PPAR-γ receptor agonist / Anti-diabetic

> <Assay_Target>
PPAR-γ (PDB ID: 8DK4)

> <DOI_Reference>
10.1515/chem-2025-0216

> <Reference_Year>
2025

> <Compound_Class>
Flavonol glycoside

> <Compound_Superclass>
Flavonoid

> <Data_Source>
Open Chemistry (De Gruyter)

> <Notes>
Selected via MD simulation and MM-PBSA

> <Validation_Status>
Verified

> <Fraction_CSP3>
0.2857142857142857

> <Ring_Count>
4

> <Aromatic_Ring_Count>
3

> <Heavy_Atom_Count>
33

> <Molar_Refractivity>
108.9744

> <QED_Score>
0.2288751447852226

> <Veber_Status>
Fail

> <Ghose_Violations>
1

> <Ghose_Status>
Fail

$$$$
Ellagic acid
  AfroDiabDB_Exporter

  0  0  0  0  0  0  0  0  0  0999 V2000
M  END
> <Compound_ID>
AFRO-0009

> <Compound_Name>
Ellagic acid

> <Plant_Name>
Moringa oleifera

> <Common_Name>
Miracle Tree

> <Plant_Family>
Moringaceae

> <Plant_Part>
Leaf

> <Country_of_Use>
Nigeria

> <PubChem_CID>
5281855

> <Canonical_SMILES>
O=C1Oc2c(O)cc(O)c(c2O)-c2c1coc(=O)c2O

> <InChIKey>
ANRHYBBXINRBRV-UHFFFAOYSA-N

> <Molecular_Formula>
C12H6O8

> <Molecular_Weight>
278.172

> <LogP>
0.6617999999999999

> <HBD>
4

> <HBA>
8

> <TPSA>
137.43

> <Rotatable_Bonds>
0

> <Lipinski_Violations>
0

> <Lipinski_Status>
Pass

> <Reported_Activity>
Potential PPAR-γ receptor agonist / Anti-diabetic

> <Assay_Target>
PPAR-γ (PDB ID: 8DK4)

> <DOI_Reference>
10.1515/chem-2025-0216

> <Reference_Year>
2025

> <Compound_Class>
Polyphenol

> <Compound_Superclass>
Phenolic Compound

> <Data_Source>
Open Chemistry (De Gruyter)

> <Notes>
Selected via MD simulation and MM-PBSA

> <Validation_Status>
Verified

> <Fraction_CSP3>
0.0

> <Ring_Count>
3

> <Aromatic_Ring_Count>
2

> <Heavy_Atom_Count>
20

> <Molar_Refractivity>
62.03170000000001

> <QED_Score>
0.407066266359713

> <Veber_Status>
Pass

> <Ghose_Violations>
0

> <Ghose_Status>
Pass

$$$$
Quercetin 3-6"-malonyl-glucoside
  AfroDiabDB_Exporter

  0  0  0  0  0  0  0  0  0  0999 V2000
M  END
> <Compound_ID>
AFRO-0010

> <Compound_Name>
Quercetin 3-6"-malonyl-glucoside

> <Plant_Name>
Moringa oleifera

> <Common_Name>
Miracle Tree

> <Plant_Family>
Moringaceae

> <Plant_Part>
Leaf

> <Country_of_Use>
Nigeria

> <PubChem_CID>
5282159

> <Canonical_SMILES>
O=C(O)CC(=O)OC[C@H]1O[C@@H](Oc2c(-c3ccc(O)c(O)c3)oc3cc(O)cc(O)c3c2=O)[C@H](O)[C@@H](O)[C@@H]1O

> <InChIKey>
NBQPHANHNTWDML-UJKBSQBPSA-N

> <Molecular_Formula>
C24H22O15

> <Molecular_Weight>
550.4250000000003

> <LogP>
-0.5132999999999999

> <HBD>
8

> <HBA>
14

> <TPSA>
253.88

> <Rotatable_Bonds>
7

> <Lipinski_Violations>
3

> <Lipinski_Status>
Fail

> <Reported_Activity>
Potential PPAR-γ receptor agonist / Anti-diabetic

> <Assay_Target>
PPAR-γ (PDB ID: 8DK4)

> <DOI_Reference>
10.1515/chem-2025-0216

> <Reference_Year>
2025

> <Compound_Class>
Flavonol glycoside

> <Compound_Superclass>
Flavonoid

> <Data_Source>
Open Chemistry (De Gruyter)

> <Notes>
Selected via MD simulation and MM-PBSA

> <Validation_Status>
Verified

> <Fraction_CSP3>
0.2916666666666667

> <Ring_Count>
4

> <Aromatic_Ring_Count>
3

> <Heavy_Atom_Count>
39

> <Molar_Refractivity>
125.1004

> <QED_Score>
0.1046578349359626

> <Veber_Status>
Fail

> <Ghose_Violations>
2

> <Ghose_Status>
Fail

$$$$
Sinalbin
  AfroDiabDB_Exporter

  0  0  0  0  0  0  0  0  0  0999 V2000
M  END
> <Compound_ID>
AFRO-0011

> <Compound_Name>
Sinalbin

> <Plant_Name>
Moringa oleifera

> <Common_Name>
Miracle Tree

> <Plant_Family>
Moringaceae

> <Plant_Part>
Leaf

> <Country_of_Use>
Nigeria

> <PubChem_CID>
656568

> <Canonical_SMILES>
O=S(=O)(O)ON=C(Cc1ccc(O)cc1)SC1OC(CO)C(O)C(O)C1O

> <InChIKey>
WWBNBPSEKLOHJU-UHFFFAOYSA-N

> <Molecular_Formula>
C14H19NO10S2

> <Molecular_Weight>
425.4370000000001

> <LogP>
-1.3993

> <HBD>
6

> <HBA>
11

> <TPSA>
186.34

> <Rotatable_Bonds>
6

> <Lipinski_Violations>
2

> <Lipinski_Status>
Fail

> <Reported_Activity>
Potential PPAR-γ receptor agonist / Anti-diabetic

> <Assay_Target>
PPAR-γ (PDB ID: 8DK4)

> <DOI_Reference>
10.1515/chem-2025-0216

> <Reference_Year>
2025

> <Compound_Class>
Glucosinolate

> <Compound_Superclass>
Organosulfur Compound

> <Data_Source>
Open Chemistry (De Gruyter)

> <Notes>
Selected via MD simulation and MM-PBSA

> <Validation_Status>
Verified

> <Fraction_CSP3>
0.5

> <Ring_Count>
2

> <Aromatic_Ring_Count>
1

> <Heavy_Atom_Count>
27

> <Molar_Refractivity>
93.23760000000003

> <QED_Score>
0.1361681297016531

> <Veber_Status>
Fail

> <Ghose_Violations>
1

> <Ghose_Status>
Fail

$$$$
Rutin
  AfroDiabDB_Exporter

  0  0  0  0  0  0  0  0  0  0999 V2000
M  END
> <Compound_ID>
AFRO-0012

> <Compound_Name>
Rutin

> <Plant_Name>
Moringa oleifera

> <Common_Name>
Miracle Tree

> <Plant_Family>
Moringaceae

> <Plant_Part>
Leaf

> <Country_of_Use>
Nigeria

> <PubChem_CID>
5280805

> <Canonical_SMILES>
C[C@@H]1O[C@@H](OC[C@H]2O[C@@H](Oc3c(-c4ccc(O)c(O)c4)oc4cc(O)cc(O)c4c3=O)[C@H](O)[C@@H](O)[C@@H]2O)[C@H](O)[C@H](O)[C@H]1O

> <InChIKey>
IKGXIBQEEMLURG-NVPNHPEKSA-N

> <Molecular_Formula>
C27H30O16

> <Molecular_Weight>
610.5210000000004

> <LogP>
-1.6871

> <HBD>
10

> <HBA>
16

> <TPSA>
269.4299999999999

> <Rotatable_Bonds>
6

> <Lipinski_Violations>
3

> <Lipinski_Status>
Fail

> <Reported_Activity>
Potential PPAR-γ receptor agonist / Anti-diabetic

> <Assay_Target>
PPAR-γ (PDB ID: 8DK4)

> <DOI_Reference>
10.1515/chem-2025-0216

> <Reference_Year>
2025

> <Compound_Class>
Flavonol glycoside

> <Compound_Superclass>
Flavonoid

> <Data_Source>
Open Chemistry (De Gruyter)

> <Notes>
Selected via MD simulation and MM-PBSA

> <Validation_Status>
Verified

> <Fraction_CSP3>
0.4444444444444444

> <Ring_Count>
5

> <Aromatic_Ring_Count>
3

> <Heavy_Atom_Count>
43

> <Molar_Refractivity>
140.196

> <QED_Score>
0.1395178432216246

> <Veber_Status>
Fail

> <Ghose_Violations>
3

> <Ghose_Status>
Fail

$$$$
Daidzein
  AfroDiabDB_Exporter

  0  0  0  0  0  0  0  0  0  0999 V2000
M  END
> <Compound_ID>
AFRO-0013

> <Compound_Name>
Daidzein

> <Plant_Name>
Moringa oleifera

> <Common_Name>
Miracle Tree

> <Plant_Family>
Moringaceae

> <Plant_Part>
Leaf

> <Country_of_Use>
Nigeria

> <PubChem_CID>
5281708

> <Canonical_SMILES>
O=c1c(-c2ccc(O)cc2)coc2cc(O)ccc12

> <InChIKey>
ZQSIJRDFPHDXIC-UHFFFAOYSA-N

> <Molecular_Formula>
C15H10O4

> <Molecular_Weight>
254.241

> <LogP>
2.871200000000001

> <HBD>
2

> <HBA>
4

> <TPSA>
70.67

> <Rotatable_Bonds>
1

> <Lipinski_Violations>
0

> <Lipinski_Status>
Pass

> <Reported_Activity>
Potential PPAR-γ receptor agonist / Anti-diabetic

> <Assay_Target>
PPAR-γ (PDB ID: 8DK4)

> <DOI_Reference>
10.1515/chem-2025-0216

> <Reference_Year>
2025

> <Compound_Class>
Isoflavone

> <Compound_Superclass>
Flavonoid

> <Data_Source>
Open Chemistry (De Gruyter)

> <Notes>
Selected via MD simulation and MM-PBSA

> <Validation_Status>
Verified

> <Fraction_CSP3>
0.0

> <Ring_Count>
3

> <Aromatic_Ring_Count>
3

> <Heavy_Atom_Count>
19

> <Molar_Refractivity>
71.24960000000002

> <QED_Score>
0.700091545915688

> <Veber_Status>
Pass

> <Ghose_Violations>
1

> <Ghose_Status>
Fail

$$$$
Chlorogenic acid
  AfroDiabDB_Exporter

  0  0  0  0  0  0  0  0  0  0999 V2000
M  END
> <Compound_ID>
AFRO-0014

> <Compound_Name>
Chlorogenic acid

> <Plant_Name>
Moringa oleifera

> <Common_Name>
Miracle Tree

> <Plant_Family>
Moringaceae

> <Plant_Part>
Leaf

> <Country_of_Use>
Nigeria

> <PubChem_CID>
1794427

> <Canonical_SMILES>
O=C(/C=C/c1ccc(O)c(O)c1)O[C@@H]1C[C@](O)(C(=O)O)C[C@@H](O)[C@H]1O

> <InChIKey>
CWVRJTMFETXNAD-JUHZACGLSA-N

> <Molecular_Formula>
C16H18O9

> <Molecular_Weight>
354.311

> <LogP>
-0.6459000000000001

> <HBD>
6

> <HBA>
8

> <TPSA>
164.75

> <Rotatable_Bonds>
4

> <Lipinski_Violations>
1

> <Lipinski_Status>
Pass

> <Reported_Activity>
Potential PPAR-γ receptor agonist / Anti-diabetic

> <Assay_Target>
PPAR-γ (PDB ID: 8DK4)

> <DOI_Reference>
10.1515/chem-2025-0216

> <Reference_Year>
2025

> <Compound_Class>
Phenolic acid

> <Compound_Superclass>
Phenolic Compound

> <Data_Source>
Open Chemistry (De Gruyter)

> <Notes>
Selected via MD simulation and MM-PBSA

> <Validation_Status>
Verified

> <Fraction_CSP3>
0.375

> <Ring_Count>
2

> <Aromatic_Ring_Count>
1

> <Heavy_Atom_Count>
25

> <Molar_Refractivity>
82.51880000000001

> <QED_Score>
0.2340852797608433

> <Veber_Status>
Fail

> <Ghose_Violations>
1

> <Ghose_Status>
Fail

$$$$
Cryptochlorogenic acid
  AfroDiabDB_Exporter

  0  0  0  0  0  0  0  0  0  0999 V2000
M  END
> <Compound_ID>
AFRO-0015

> <Compound_Name>
Cryptochlorogenic acid

> <Plant_Name>
Moringa oleifera

> <Common_Name>
Miracle Tree

> <Plant_Family>
Moringaceae

> <Plant_Part>
Leaf

> <Country_of_Use>
Nigeria

> <PubChem_CID>
9798666

> <Canonical_SMILES>
O=C(/C=C/c1ccc(O)c(O)c1)OC1[C@H](O)CC(O)(C(=O)O)C[C@H]1O

> <InChIKey>
GYFFKZTYYAFCTR-AVXJPILUSA-N

> <Molecular_Formula>
C16H18O9

> <Molecular_Weight>
354.3110000000001

> <LogP>
-0.6459000000000006

> <HBD>
6

> <HBA>
8

> <TPSA>
164.75

> <Rotatable_Bonds>
4

> <Lipinski_Violations>
1

> <Lipinski_Status>
Pass

> <Reported_Activity>
Potential PPAR-γ receptor agonist / Anti-diabetic

> <Assay_Target>
PPAR-γ (PDB ID: 8DK4)

> <DOI_Reference>
10.1515/chem-2025-0216

> <Reference_Year>
2025

> <Compound_Class>
Phenolic acid

> <Compound_Superclass>
Phenolic Compound

> <Data_Source>
Open Chemistry (De Gruyter)

> <Notes>
Selected via MD simulation and MM-PBSA

> <Validation_Status>
Verified

> <Fraction_CSP3>
0.375

> <Ring_Count>
2

> <Aromatic_Ring_Count>
1

> <Heavy_Atom_Count>
25

> <Molar_Refractivity>
82.51880000000001

> <QED_Score>
0.2340852797608433

> <Veber_Status>
Fail

> <Ghose_Violations>
1

> <Ghose_Status>
Fail

$$$$
Marumoside A
  AfroDiabDB_Exporter

  0  0  0  0  0  0  0  0  0  0999 V2000
M  END
> <Compound_ID>
AFRO-0016

> <Compound_Name>
Marumoside A

> <Plant_Name>
Moringa oleifera

> <Common_Name>
Miracle Tree

> <Plant_Family>
Moringaceae

> <Plant_Part>
Leaf

> <Country_of_Use>
Nigeria

> <PubChem_CID>
101794623

> <Canonical_SMILES>
C[C@@H]1O[C@@H](Oc2ccc(CC(N)=O)cc2)[C@H](O)[C@H](O)[C@H]1O

> <InChIKey>
FBANEUHXMFEIRO-WBFOWJMUSA-N

> <Molecular_Formula>
C14H19NO6

> <Molecular_Weight>
297.307

> <LogP>
-1.0793

> <HBD>
4

> <HBA>
6

> <TPSA>
122.24

> <Rotatable_Bonds>
4

> <Lipinski_Violations>
0

> <Lipinski_Status>
Pass

> <Reported_Activity>
Potential PPAR-γ receptor agonist / Anti-diabetic

> <Assay_Target>
PPAR-γ (PDB ID: 8DK4)

> <DOI_Reference>
10.1515/chem-2025-0216

> <Reference_Year>
2025

> <Compound_Class>
Phenolic Compound

> <Compound_Superclass>
Phenolic Compound

> <Data_Source>
Open Chemistry (De Gruyter)

> <Notes>
Selected via MD simulation and MM-PBSA

> <Validation_Status>
Verified

> <Fraction_CSP3>
0.5

> <Ring_Count>
2

> <Aromatic_Ring_Count>
1

> <Heavy_Atom_Count>
21

> <Molar_Refractivity>
72.32380000000002

> <QED_Score>
0.560603061692137

> <Veber_Status>
Pass

> <Ghose_Violations>
1

> <Ghose_Status>
Fail

$$$$
Myricetin
  AfroDiabDB_Exporter

  0  0  0  0  0  0  0  0  0  0999 V2000
M  END
> <Compound_ID>
AFRO-0017

> <Compound_Name>
Myricetin

> <Plant_Name>
Moringa oleifera

> <Common_Name>
Miracle Tree

> <Plant_Family>
Moringaceae

> <Plant_Part>
Leaf

> <Country_of_Use>
Nigeria

> <PubChem_CID>
101794623

> <Canonical_SMILES>
O=c1c(O)c(-c2cc(O)c(O)c(O)c2)oc2cc(O)cc(O)c12

> <InChIKey>
IKMDFBPHZNJCSN-UHFFFAOYSA-N

> <Molecular_Formula>
C15H10O8

> <Molecular_Weight>
318.237

> <LogP>
1.6936

> <HBD>
6

> <HBA>
8

> <TPSA>
151.59

> <Rotatable_Bonds>
1

> <Lipinski_Violations>
1

> <Lipinski_Status>
Pass

> <Reported_Activity>
Potential PPAR-γ receptor agonist / Anti-diabetic

> <Assay_Target>
PPAR-γ (PDB ID: 8DK4)

> <DOI_Reference>
10.1515/chem-2025-0216

> <Reference_Year>
2025

> <Compound_Class>
Flavonol

> <Compound_Superclass>
Flavonoid

> <Data_Source>
Open Chemistry (De Gruyter)

> <Notes>
Selected via MD simulation and MM-PBSA

> <Validation_Status>
Verified

> <Fraction_CSP3>
0.0

> <Ring_Count>
3

> <Aromatic_Ring_Count>
3

> <Heavy_Atom_Count>
23

> <Molar_Refractivity>
77.90879999999999

> <QED_Score>
0.3707504645634647

> <Veber_Status>
Fail

> <Ghose_Violations>
0

> <Ghose_Status>
Pass

$$$$
Kaempferol-3-O-glucoside
  AfroDiabDB_Exporter

  0  0  0  0  0  0  0  0  0  0999 V2000
M  END
> <Compound_ID>
AFRO-0018

> <Compound_Name>
Kaempferol-3-O-glucoside

> <Plant_Name>
Moringa oleifera

> <Common_Name>
Miracle Tree

> <Plant_Family>
Moringaceae

> <Plant_Part>
Leaf

> <Country_of_Use>
Nigeria

> <PubChem_CID>
5282102

> <Canonical_SMILES>
O=c1c(O)c(-c2ccc(O)cc2)oc2cc(O[C@@H]3O[C@H](CO)[C@@H](O)[C@H](O)[C@H]3O)cc(O)c12

> <InChIKey>
YPWHZCPMOQGCDQ-HMGRVEAOSA-N

> <Molecular_Formula>
C21H20O11

> <Molecular_Weight>
448.3800000000002

> <LogP>
-0.2445000000000002

> <HBD>
7

> <HBA>
11

> <TPSA>
190.28

> <Rotatable_Bonds>
4

> <Lipinski_Violations>
2

> <Lipinski_Status>
Fail

> <Reported_Activity>
Potential PPAR-γ receptor agonist / Anti-diabetic

> <Assay_Target>
PPAR-γ (PDB ID: 8DK4)

> <DOI_Reference>
10.1515/chem-2025-0216

> <Reference_Year>
2025

> <Compound_Class>
Flavonol glycoside

> <Compound_Superclass>
Flavonoid

> <Data_Source>
Open Chemistry (De Gruyter)

> <Notes>
Selected via MD simulation and MM-PBSA

> <Validation_Status>
Verified

> <Fraction_CSP3>
0.2857142857142857

> <Ring_Count>
4

> <Aromatic_Ring_Count>
3

> <Heavy_Atom_Count>
32

> <Molar_Refractivity>
107.3096

> <QED_Score>
0.2786277523316124

> <Veber_Status>
Fail

> <Ghose_Violations>
0

> <Ghose_Status>
Pass

$$$$
Quercetin
  AfroDiabDB_Exporter

  0  0  0  0  0  0  0  0  0  0999 V2000
M  END
> <Compound_ID>
AFRO-0020

> <Compound_Name>
Quercetin

> <Plant_Name>
Moringa oleifera

> <Common_Name>
Miracle Tree

> <Plant_Family>
Moringaceae

> <Plant_Part>
Leaf

> <Country_of_Use>
Nigeria

> <PubChem_CID>
5280343

> <Canonical_SMILES>
O=c1c(O)c(-c2ccc(O)c(O)c2)oc2cc(O)cc(O)c12

> <InChIKey>
REFJWTPEDVJJIY-UHFFFAOYSA-N

> <Molecular_Formula>
C15H10O7

> <Molecular_Weight>
302.2380000000001

> <LogP>
1.988

> <HBD>
5

> <HBA>
7

> <TPSA>
131.36

> <Rotatable_Bonds>
1

> <Lipinski_Violations>
0

> <Lipinski_Status>
Pass

> <Reported_Activity>
Potential PPAR-γ receptor agonist / Anti-diabetic

> <Assay_Target>
PPAR-γ (PDB ID: 8DK4)

> <DOI_Reference>
10.1515/chem-2025-0216

> <Reference_Year>
2025

> <Compound_Class>
Flavonol

> <Compound_Superclass>
Flavonoid

> <Data_Source>
Open Chemistry (De Gruyter)

> <Notes>
Selected via MD simulation and MM-PBSA

> <Validation_Status>
Verified

> <Fraction_CSP3>
0.0

> <Ring_Count>
3

> <Aromatic_Ring_Count>
3

> <Heavy_Atom_Count>
22

> <Molar_Refractivity>
76.244

> <QED_Score>
0.4341904402990981

> <Veber_Status>
Pass

> <Ghose_Violations>
0

> <Ghose_Status>
Pass

$$$$
Apigenin
  AfroDiabDB_Exporter

  0  0  0  0  0  0  0  0  0  0999 V2000
M  END
> <Compound_ID>
AFRO-0021

> <Compound_Name>
Apigenin

> <Plant_Name>
Moringa oleifera

> <Common_Name>
Miracle Tree

> <Plant_Family>
Moringaceae

> <Plant_Part>
Leaf

> <Country_of_Use>
Nigeria

> <PubChem_CID>
5280443

> <Canonical_SMILES>
O=c1cc(-c2ccc(O)cc2)oc2cc(O)cc(O)c12

> <InChIKey>
KZNIFHPLKGYRTM-UHFFFAOYSA-N

> <Molecular_Formula>
C15H10O5

> <Molecular_Weight>
270.24

> <LogP>
2.576800000000001

> <HBD>
3

> <HBA>
5

> <TPSA>
90.9

> <Rotatable_Bonds>
1

> <Lipinski_Violations>
0

> <Lipinski_Status>
Pass

> <Reported_Activity>
Potential PPAR-γ receptor agonist / Anti-diabetic

> <Assay_Target>
PPAR-γ (PDB ID: 8DK4)

> <DOI_Reference>
10.1515/chem-2025-0216

> <Reference_Year>
2025

> <Compound_Class>
Flavone

> <Compound_Superclass>
Flavonoid

> <Data_Source>
Open Chemistry (De Gruyter)

> <Notes>
Selected via MD simulation and MM-PBSA

> <Validation_Status>
Verified

> <Fraction_CSP3>
0.0

> <Ring_Count>
3

> <Aromatic_Ring_Count>
3

> <Heavy_Atom_Count>
20

> <Molar_Refractivity>
72.91440000000001

> <QED_Score>
0.6318329361180623

> <Veber_Status>
Pass

> <Ghose_Violations>
0

> <Ghose_Status>
Pass

$$$$
Isorhamnetin
  AfroDiabDB_Exporter

  0  0  0  0  0  0  0  0  0  0999 V2000
M  END
> <Compound_ID>
AFRO-0022

> <Compound_Name>
Isorhamnetin

> <Plant_Name>
Moringa oleifera

> <Common_Name>
Miracle Tree

> <Plant_Family>
Moringaceae

> <Plant_Part>
Leaf

> <Country_of_Use>
Nigeria

> <PubChem_CID>
5281654

> <Canonical_SMILES>
COc1cc(O)ccc1-c1oc2cc(O)cc(O)c2c(=O)c1O

> <InChIKey>
KOGSTTPXQAYLHK-UHFFFAOYSA-N

> <Molecular_Formula>
C16H12O7

> <Molecular_Weight>
316.265

> <LogP>
2.291

> <HBD>
4

> <HBA>
7

> <TPSA>
120.36

> <Rotatable_Bonds>
2

> <Lipinski_Violations>
0

> <Lipinski_Status>
Pass

> <Reported_Activity>
Potential PPAR-γ receptor agonist / Anti-diabetic

> <Assay_Target>
PPAR-γ (PDB ID: 8DK4)

> <DOI_Reference>
10.1515/chem-2025-0216

> <Reference_Year>
2025

> <Compound_Class>
Flavonol

> <Compound_Superclass>
Flavonoid

> <Data_Source>
Open Chemistry (De Gruyter)

> <Notes>
Selected via MD simulation and MM-PBSA

> <Validation_Status>
Verified

> <Fraction_CSP3>
0.0625

> <Ring_Count>
3

> <Aromatic_Ring_Count>
3

> <Heavy_Atom_Count>
23

> <Molar_Refractivity>
81.1312

> <QED_Score>
0.5721390849031665

> <Veber_Status>
Pass

> <Ghose_Violations>
0

> <Ghose_Status>
Pass

$$$$
Kaempferol-3-O-alpha-rhamnoside
  AfroDiabDB_Exporter

  0  0  0  0  0  0  0  0  0  0999 V2000
M  END
> <Compound_ID>
AFRO-0023

> <Compound_Name>
Kaempferol-3-O-alpha-rhamnoside

> <Plant_Name>
Moringa oleifera

> <Common_Name>
Miracle Tree

> <Plant_Family>
Moringaceae

> <Plant_Part>
Leaf

> <Country_of_Use>
Nigeria

> <PubChem_CID>
5316673

> <Canonical_SMILES>
CC1OC(Oc2c(-c3ccc(O)cc3)oc3cc(O)cc(O)c3c2=O)C(O)C(O)C1O

> <InChIKey>
SOSLMHZOJATCCP-UHFFFAOYSA-N

> <Molecular_Formula>
C21H20O10

> <Molecular_Weight>
432.3810000000001

> <LogP>
0.7830999999999995

> <HBD>
6

> <HBA>
10

> <TPSA>
170.05

> <Rotatable_Bonds>
3

> <Lipinski_Violations>
1

> <Lipinski_Status>
Pass

> <Reported_Activity>
Potential PPAR-γ receptor agonist / Anti-diabetic

> <Assay_Target>
PPAR-γ (PDB ID: 8DK4)

> <DOI_Reference>
10.1515/chem-2025-0216

> <Reference_Year>
2025

> <Compound_Class>
Flavonol glycoside

> <Compound_Superclass>
Flavonoid

> <Data_Source>
Open Chemistry (De Gruyter)

> <Notes>
Selected via MD simulation and MM-PBSA

> <Validation_Status>
Verified

> <Fraction_CSP3>
0.2857142857142857

> <Ring_Count>
4

> <Aromatic_Ring_Count>
3

> <Heavy_Atom_Count>
31

> <Molar_Refractivity>
105.8978

> <QED_Score>
0.347581342444577

> <Veber_Status>
Fail

> <Ghose_Violations>
0

> <Ghose_Status>
Pass

$$$$
Kaempferol
  AfroDiabDB_Exporter

  0  0  0  0  0  0  0  0  0  0999 V2000
M  END
> <Compound_ID>
AFRO-0025

> <Compound_Name>
Kaempferol

> <Plant_Name>
Moringa oleifera

> <Common_Name>
Miracle Tree

> <Plant_Family>
Moringaceae

> <Plant_Part>
Leaf

> <Country_of_Use>
Nigeria

> <PubChem_CID>
5280863

> <Canonical_SMILES>
O=c1c(O)c(-c2ccc(O)cc2)oc2cc(O)cc(O)c12

> <InChIKey>
IYRMWMYZSQPJKC-UHFFFAOYSA-N

> <Molecular_Formula>
C15H10O6

> <Molecular_Weight>
286.239

> <LogP>
2.2824

> <HBD>
4

> <HBA>
6

> <TPSA>
111.13

> <Rotatable_Bonds>
1

> <Lipinski_Violations>
0

> <Lipinski_Status>
Pass

> <Reported_Activity>
Potential PPAR-γ receptor agonist / Anti-diabetic

> <Assay_Target>
PPAR-γ (PDB ID: 8DK4)

> <DOI_Reference>
10.1515/chem-2025-0216

> <Reference_Year>
2025

> <Compound_Class>
Flavonol

> <Compound_Superclass>
Flavonoid

> <Data_Source>
Open Chemistry (De Gruyter)

> <Notes>
Selected via MD simulation and MM-PBSA

> <Validation_Status>
Verified

> <Fraction_CSP3>
0.0

> <Ring_Count>
3

> <Aromatic_Ring_Count>
3

> <Heavy_Atom_Count>
21

> <Molar_Refractivity>
74.5792

> <QED_Score>
0.5458513994143424

> <Veber_Status>
Pass

> <Ghose_Violations>
0

> <Ghose_Status>
Pass

$$$$
Niazirinin
  AfroDiabDB_Exporter

  0  0  0  0  0  0  0  0  0  0999 V2000
M  END
> <Compound_ID>
AFRO-0026

> <Compound_Name>
Niazirinin

> <Plant_Name>
Moringa oleifera

> <Common_Name>
Miracle Tree

> <Plant_Family>
Moringaceae

> <Plant_Part>
Leaf

> <Country_of_Use>
Nigeria

> <PubChem_CID>
10426197

> <Canonical_SMILES>
CC(=O)O[C@@H]1[C@@H](O)[C@@H](O)[C@H](Oc2ccc(CC#N)cc2)O[C@H]1C

> <InChIKey>
QSGQMXJNFWYWMM-QOYUQHOESA-N

> <Molecular_Formula>
C16H19NO6

> <Molecular_Weight>
321.329

> <LogP>
0.5297799999999995

> <HBD>
2

> <HBA>
7

> <TPSA>
109.01

> <Rotatable_Bonds>
4

> <Lipinski_Violations>
0

> <Lipinski_Status>
Pass

> <Reported_Activity>
Potential PPAR-γ receptor agonist / Anti-diabetic

> <Assay_Target>
PPAR-γ (PDB ID: 8DK4)

> <DOI_Reference>
10.1515/chem-2025-0216

> <Reference_Year>
2025

> <Compound_Class>
Phenylpropanoid glycoside

> <Compound_Superclass>
Phenylpropanoid

> <Data_Source>
Open Chemistry (De Gruyter)

> <Notes>
Extracted from PubChem, screening against INSR

> <Validation_Status>
Verified

> <Fraction_CSP3>
0.5

> <Ring_Count>
2

> <Aromatic_Ring_Count>
1

> <Heavy_Atom_Count>
23

> <Molar_Refractivity>
78.28960000000004

> <QED_Score>
0.7784911447253746

> <Veber_Status>
Pass

> <Ghose_Violations>
0

> <Ghose_Status>
Pass

$$$$
Kaempferol-3-O-rutinoside
  AfroDiabDB_Exporter

  0  0  0  0  0  0  0  0  0  0999 V2000
M  END
> <Compound_ID>
AFRO-0027

> <Compound_Name>
Kaempferol-3-O-rutinoside

> <Plant_Name>
Moringa oleifera

> <Common_Name>
Miracle Tree

> <Plant_Family>
Moringaceae

> <Plant_Part>
Leaf

> <Country_of_Use>
Nigeria

> <PubChem_CID>
5318767

> <Canonical_SMILES>
CC1OC(O[C@@H]2C(O)[C@H](CO)O[C@H](O[C@@H]3OC(CO)C(O)C(O)C3O)[C@H]2O)C(O)C(O)C1O

> <InChIKey>
LUUKUKOJVUARLB-OKEYHNKUSA-N

> <Molecular_Formula>
C18H32O15

> <Molecular_Weight>
488.4390000000001

> <LogP>
-6.545399999999989

> <HBD>
10

> <HBA>
15

> <TPSA>
248.45

> <Rotatable_Bonds>
6

> <Lipinski_Violations>
2

> <Lipinski_Status>
Fail

> <Reported_Activity>
Potential PPAR-γ receptor agonist / Anti-diabetic

> <Assay_Target>
PPAR-γ (PDB ID: 8DK4)

> <DOI_Reference>
10.1515/chem-2025-0216

> <Reference_Year>
2025

> <Compound_Class>
Flavonol glycoside

> <Compound_Superclass>
Flavonoid

> <Data_Source>
Open Chemistry (De Gruyter)

> <Notes>
Extracted from PubChem, screening against INSR

> <Validation_Status>
Verified

> <Fraction_CSP3>
1.0

> <Ring_Count>
3

> <Aromatic_Ring_Count>
0

> <Heavy_Atom_Count>
33

> <Molar_Refractivity>
99.84100000000001

> <QED_Score>
0.166843493938303

> <Veber_Status>
Fail

> <Ghose_Violations>
2

> <Ghose_Status>
Fail

$$$$
Quercetin-3-O-glucoside
  AfroDiabDB_Exporter

  0  0  0  0  0  0  0  0  0  0999 V2000
M  END
> <Compound_ID>
AFRO-0028

> <Compound_Name>
Quercetin-3-O-glucoside

> <Plant_Name>
Moringa oleifera

> <Common_Name>
Miracle Tree

> <Plant_Family>
Moringaceae

> <Plant_Part>
Leaf

> <Country_of_Use>
Nigeria

> <PubChem_CID>
5280804

> <Canonical_SMILES>
O=c1c(OC2OC(CO)C(O)C(O)C2O)c(-c2ccc(O)c(O)c2)oc2cc(O)cc(O)c12

> <InChIKey>
OVSQVDMCBVZWGM-UHFFFAOYSA-N

> <Molecular_Formula>
C21H20O12

> <Molecular_Weight>
464.3790000000002

> <LogP>
-0.5388999999999995

> <HBD>
8

> <HBA>
12

> <TPSA>
210.51

> <Rotatable_Bonds>
4

> <Lipinski_Violations>
2

> <Lipinski_Status>
Fail

> <Reported_Activity>
Potential PPAR-γ receptor agonist / Anti-diabetic

> <Assay_Target>
PPAR-γ (PDB ID: 8DK4)

> <DOI_Reference>
10.1515/chem-2025-0216

> <Reference_Year>
2025

> <Compound_Class>
Flavonol glycoside

> <Compound_Superclass>
Flavonoid

> <Data_Source>
Open Chemistry (De Gruyter)

> <Notes>
Extracted from PubChem, screening against INSR

> <Validation_Status>
Verified

> <Fraction_CSP3>
0.2857142857142857

> <Ring_Count>
4

> <Aromatic_Ring_Count>
3

> <Heavy_Atom_Count>
33

> <Molar_Refractivity>
108.9744

> <QED_Score>
0.2288751447852226

> <Veber_Status>
Fail

> <Ghose_Violations>
1

> <Ghose_Status>
Fail

$$$$
Sinapinic acid
  AfroDiabDB_Exporter

  0  0  0  0  0  0  0  0  0  0999 V2000
M  END
> <Compound_ID>
AFRO-0029

> <Compound_Name>
Sinapinic acid

> <Plant_Name>
Moringa oleifera

> <Common_Name>
Miracle Tree

> <Plant_Family>
Moringaceae

> <Plant_Part>
Leaf

> <Country_of_Use>
Nigeria

> <PubChem_CID>
637775

> <Canonical_SMILES>
COc1cc(O)c(OC)c(/C=C/C(=O)O)c1

> <InChIKey>
PURQJDIUEDXRAB-ONEGZZNKSA-N

> <Molecular_Formula>
C11H12O5

> <Molecular_Weight>
224.212

> <LogP>
1.5072

> <HBD>
2

> <HBA>
4

> <TPSA>
75.99

> <Rotatable_Bonds>
4

> <Lipinski_Violations>
0

> <Lipinski_Status>
Pass

> <Reported_Activity>
Potential PPAR-γ receptor agonist / Anti-diabetic

> <Assay_Target>
PPAR-γ (PDB ID: 8DK4)

> <DOI_Reference>
10.1515/chem-2025-0216

> <Reference_Year>
2025

> <Compound_Class>
Phenolic acid

> <Compound_Superclass>
Phenolic Compound

> <Data_Source>
Open Chemistry (De Gruyter)

> <Notes>
Extracted from PubChem, screening against INSR

> <Validation_Status>
Verified

> <Fraction_CSP3>
0.1818181818181818

> <Ring_Count>
1

> <Aromatic_Ring_Count>
1

> <Heavy_Atom_Count>
16

> <Molar_Refractivity>
57.88060000000002

> <QED_Score>
0.7578877168072972

> <Veber_Status>
Pass

> <Ghose_Violations>
1

> <Ghose_Status>
Fail

$$$$
Ferulic acid
  AfroDiabDB_Exporter

  0  0  0  0  0  0  0  0  0  0999 V2000
M  END
> <Compound_ID>
AFRO-0030

> <Compound_Name>
Ferulic acid

> <Plant_Name>
Moringa oleifera

> <Common_Name>
Miracle Tree

> <Plant_Family>
Moringaceae

> <Plant_Part>
Leaf

> <Country_of_Use>
Nigeria

> <PubChem_CID>
445858

> <Canonical_SMILES>
COc1cc(/C=C/C(=O)O)ccc1O

> <InChIKey>
KSEBMYQBYZTDHS-HWKANZROSA-N

> <Molecular_Formula>
C10H10O4

> <Molecular_Weight>
194.186

> <LogP>
1.4986

> <HBD>
2

> <HBA>
3

> <TPSA>
66.76

> <Rotatable_Bonds>
3

> <Lipinski_Violations>
0

> <Lipinski_Status>
Pass

> <Reported_Activity>
Potential PPAR-γ receptor agonist / Anti-diabetic

> <Assay_Target>
PPAR-γ (PDB ID: 8DK4)

> <DOI_Reference>
10.1515/chem-2025-0216

> <Reference_Year>
2025

> <Compound_Class>
Phenolic acid

> <Compound_Superclass>
Phenolic Compound

> <Data_Source>
Open Chemistry (De Gruyter)

> <Notes>
Extracted from PubChem, screening against INSR

> <Validation_Status>
Verified

> <Fraction_CSP3>
0.1

> <Ring_Count>
1

> <Aromatic_Ring_Count>
1

> <Heavy_Atom_Count>
14

> <Molar_Refractivity>
51.32860000000002

> <QED_Score>
0.7153202107154631

> <Veber_Status>
Pass

> <Ghose_Violations>
1

> <Ghose_Status>
Fail

$$$$
Beta-sitosterol
  AfroDiabDB_Exporter

  0  0  0  0  0  0  0  0  0  0999 V2000
M  END
> <Compound_ID>
AFRO-0031

> <Compound_Name>
Beta-sitosterol

> <Plant_Name>
Moringa oleifera

> <Common_Name>
Miracle Tree

> <Plant_Family>
Moringaceae

> <Plant_Part>
Leaf

> <Country_of_Use>
Nigeria

> <PubChem_CID>
222284

> <Canonical_SMILES>
CC[C@H](CC[C@@H](C)[C@H]1CC[C@H]2[C@@H]3CC=C4C[C@@H](O)CC[C@]4(C)[C@H]3CC[C@]12C)C(C)C

> <InChIKey>
KZJWDPNRJALLNS-VJSFXXLFSA-N

> <Molecular_Formula>
C29H50O

> <Molecular_Weight>
414.7180000000003

> <LogP>
8.02480000000001

> <HBD>
1

> <HBA>
1

> <TPSA>
20.23

> <Rotatable_Bonds>
6

> <Lipinski_Violations>
1

> <Lipinski_Status>
Pass

> <Reported_Activity>
Potential PPAR-γ receptor agonist / Anti-diabetic

> <Assay_Target>
PPAR-γ (PDB ID: 8DK4)

> <DOI_Reference>
10.1515/chem-2025-0216

> <Reference_Year>
2025

> <Compound_Class>
Phytosterol

> <Compound_Superclass>
Steroid

> <Data_Source>
Open Chemistry (De Gruyter)

> <Notes>
Extracted from PubChem, screening against INSR

> <Validation_Status>
Verified

> <Fraction_CSP3>
0.9310344827586207

> <Ring_Count>
4

> <Aromatic_Ring_Count>
0

> <Heavy_Atom_Count>
30

> <Molar_Refractivity>
128.2168000000001

> <QED_Score>
0.436095641737511

> <Veber_Status>
Pass

> <Ghose_Violations>
1

> <Ghose_Status>
Fail

$$$$
Caffeic acid
  AfroDiabDB_Exporter

  0  0  0  0  0  0  0  0  0  0999 V2000
M  END
> <Compound_ID>
AFRO-0032

> <Compound_Name>
Caffeic acid

> <Plant_Name>
Moringa oleifera

> <Common_Name>
Miracle Tree

> <Plant_Family>
Moringaceae

> <Plant_Part>
Leaf

> <Country_of_Use>
Nigeria

> <PubChem_CID>
689043

> <Canonical_SMILES>
O=C(O)/C=C/c1ccc(O)c(O)c1

> <InChIKey>
QAIPRVGONGVQAS-DUXPYHPUSA-N

> <Molecular_Formula>
C9H8O4

> <Molecular_Weight>
180.159

> <LogP>
1.1956

> <HBD>
3

> <HBA>
3

> <TPSA>
77.76

> <Rotatable_Bonds>
2

> <Lipinski_Violations>
0

> <Lipinski_Status>
Pass

> <Reported_Activity>
Potential PPAR-γ receptor agonist / Anti-diabetic

> <Assay_Target>
PPAR-γ (PDB ID: 8DK4)

> <DOI_Reference>
10.1515/chem-2025-0216

> <Reference_Year>
2025

> <Compound_Class>
Phenolic acid

> <Compound_Superclass>
Phenolic Compound

> <Data_Source>
Open Chemistry (De Gruyter)

> <Notes>
Extracted from PubChem, screening against INSR

> <Validation_Status>
Verified

> <Fraction_CSP3>
0.0

> <Ring_Count>
1

> <Aromatic_Ring_Count>
1

> <Heavy_Atom_Count>
13

> <Molar_Refractivity>
46.44140000000002

> <QED_Score>
0.4716213331416678

> <Veber_Status>
Pass

> <Ghose_Violations>
1

> <Ghose_Status>
Fail

$$$$
Gentisic acid
  AfroDiabDB_Exporter

  0  0  0  0  0  0  0  0  0  0999 V2000
M  END
> <Compound_ID>
AFRO-0033

> <Compound_Name>
Gentisic acid

> <Plant_Name>
Moringa oleifera

> <Common_Name>
Miracle Tree

> <Plant_Family>
Moringaceae

> <Plant_Part>
Leaf

> <Country_of_Use>
Nigeria

> <PubChem_CID>
3469

> <Canonical_SMILES>
O=C(O)c1cccc(O)c1O

> <InChIKey>
GLDQAMYCGOIJDV-UHFFFAOYSA-N

> <Molecular_Formula>
C7H6O4

> <Molecular_Weight>
154.121

> <LogP>
0.7959999999999998

> <HBD>
3

> <HBA>
3

> <TPSA>
77.76

> <Rotatable_Bonds>
1

> <Lipinski_Violations>
0

> <Lipinski_Status>
Pass

> <Reported_Activity>
Potential PPAR-γ receptor agonist / Anti-diabetic

> <Assay_Target>
PPAR-γ (PDB ID: 8DK4)

> <DOI_Reference>
10.1515/chem-2025-0216

> <Reference_Year>
2025

> <Compound_Class>
Phenolic acid

> <Compound_Superclass>
Phenolic Compound

> <Data_Source>
Open Chemistry (De Gruyter)

> <Notes>
Extracted from PubChem, screening against INSR

> <Validation_Status>
Verified

> <Fraction_CSP3>
0.0

> <Ring_Count>
1

> <Aromatic_Ring_Count>
1

> <Heavy_Atom_Count>
11

> <Molar_Refractivity>
36.73090000000001

> <QED_Score>
0.5224912248827285

> <Veber_Status>
Pass

> <Ghose_Violations>
3

> <Ghose_Status>
Fail

$$$$
o-Coumaric acid
  AfroDiabDB_Exporter

  0  0  0  0  0  0  0  0  0  0999 V2000
M  END
> <Compound_ID>
AFRO-0034

> <Compound_Name>
o-Coumaric acid

> <Plant_Name>
Moringa oleifera

> <Common_Name>
Miracle Tree

> <Plant_Family>
Moringaceae

> <Plant_Part>
Leaf

> <Country_of_Use>
Nigeria

> <PubChem_CID>
637540

> <Canonical_SMILES>
O=C(O)C=Cc1ccccc1O

> <InChIKey>
PMOWTIHVNWZYFI-UHFFFAOYSA-N

> <Molecular_Formula>
C9H8O3

> <Molecular_Weight>
164.16

> <LogP>
1.49

> <HBD>
2

> <HBA>
2

> <TPSA>
57.53

> <Rotatable_Bonds>
2

> <Lipinski_Violations>
0

> <Lipinski_Status>
Pass

> <Reported_Activity>
Potential PPAR-γ receptor agonist / Anti-diabetic

> <Assay_Target>
PPAR-γ (PDB ID: 8DK4)

> <DOI_Reference>
10.1515/chem-2025-0216

> <Reference_Year>
2025

> <Compound_Class>
Phenolic acid

> <Compound_Superclass>
Phenolic Compound

> <Data_Source>
Open Chemistry (De Gruyter)

> <Notes>
Extracted from PubChem, screening against INSR

> <Validation_Status>
Verified

> <Fraction_CSP3>
0.0

> <Ring_Count>
1

> <Aromatic_Ring_Count>
1

> <Heavy_Atom_Count>
12

> <Molar_Refractivity>
44.77660000000002

> <QED_Score>
0.65083387330713

> <Veber_Status>
Pass

> <Ghose_Violations>
1

> <Ghose_Status>
Fail

$$$$
Gallic acid
  AfroDiabDB_Exporter

  0  0  0  0  0  0  0  0  0  0999 V2000
M  END
> <Compound_ID>
AFRO-0035

> <Compound_Name>
Gallic acid

> <Plant_Name>
Moringa oleifera

> <Common_Name>
Miracle Tree

> <Plant_Family>
Moringaceae

> <Plant_Part>
Leaf

> <Country_of_Use>
Nigeria

> <PubChem_CID>
370

> <Canonical_SMILES>
O=C(O)c1cc(O)c(O)cc1O

> <InChIKey>
GPDXFYPVHRESMA-UHFFFAOYSA-N

> <Molecular_Formula>
C7H6O5

> <Molecular_Weight>
170.12

> <LogP>
0.5015999999999996

> <HBD>
4

> <HBA>
4

> <TPSA>
97.99000000000001

> <Rotatable_Bonds>
1

> <Lipinski_Violations>
0

> <Lipinski_Status>
Pass

> <Reported_Activity>
Potential PPAR-γ receptor agonist / Anti-diabetic

> <Assay_Target>
PPAR-γ (PDB ID: 8DK4)

> <DOI_Reference>
10.1515/chem-2025-0216

> <Reference_Year>
2025

> <Compound_Class>
Phenolic acid

> <Compound_Superclass>
Phenolic Compound

> <Data_Source>
Open Chemistry (De Gruyter)

> <Notes>
Extracted from PubChem, screening against INSR

> <Validation_Status>
Verified

> <Fraction_CSP3>
0.0

> <Ring_Count>
1

> <Aromatic_Ring_Count>
1

> <Heavy_Atom_Count>
12

> <Molar_Refractivity>
38.39570000000001

> <QED_Score>
0.3631403063493166

> <Veber_Status>
Pass

> <Ghose_Violations>
2

> <Ghose_Status>
Fail

$$$$
Salicylic acid
  AfroDiabDB_Exporter

  0  0  0  0  0  0  0  0  0  0999 V2000
M  END
> <Compound_ID>
AFRO-0036

> <Compound_Name>
Salicylic acid

> <Plant_Name>
Moringa oleifera

> <Common_Name>
Miracle Tree

> <Plant_Family>
Moringaceae

> <Plant_Part>
Leaf

> <Country_of_Use>
Nigeria

> <PubChem_CID>
338

> <Canonical_SMILES>
O=C(O)c1ccccc1O

> <InChIKey>
YGSDEFSMJLZEOE-UHFFFAOYSA-N

> <Molecular_Formula>
C7H6O3

> <Molecular_Weight>
138.122

> <LogP>
1.0904

> <HBD>
2

> <HBA>
2

> <TPSA>
57.53

> <Rotatable_Bonds>
1

> <Lipinski_Violations>
0

> <Lipinski_Status>
Pass

> <Reported_Activity>
Potential PPAR-γ receptor agonist / Anti-diabetic

> <Assay_Target>
PPAR-γ (PDB ID: 8DK4)

> <DOI_Reference>
10.1515/chem-2025-0216

> <Reference_Year>
2025

> <Compound_Class>
Phenolic acid

> <Compound_Superclass>
Phenolic Compound

> <Data_Source>
Open Chemistry (De Gruyter)

> <Notes>
Extracted from PubChem, screening against INSR

> <Validation_Status>
Verified

> <Fraction_CSP3>
0.0

> <Ring_Count>
1

> <Aromatic_Ring_Count>
1

> <Heavy_Atom_Count>
10

> <Molar_Refractivity>
35.06610000000001

> <QED_Score>
0.6102585058580265

> <Veber_Status>
Pass

> <Ghose_Violations>
3

> <Ghose_Status>
Fail

$$$$
p-Coumaric acid
  AfroDiabDB_Exporter

  0  0  0  0  0  0  0  0  0  0999 V2000
M  END
> <Compound_ID>
AFRO-0037

> <Compound_Name>
p-Coumaric acid

> <Plant_Name>
Moringa oleifera

> <Common_Name>
Miracle Tree

> <Plant_Family>
Moringaceae

> <Plant_Part>
Leaf

> <Country_of_Use>
Nigeria

> <PubChem_CID>
637542

> <Canonical_SMILES>
O=C(O)/C=C/c1ccc(O)cc1

> <InChIKey>
NGSWKAQJJWESNS-ZZXKWVIFSA-N

> <Molecular_Formula>
C9H8O3

> <Molecular_Weight>
164.16

> <LogP>
1.49

> <HBD>
2

> <HBA>
2

> <TPSA>
57.53

> <Rotatable_Bonds>
2

> <Lipinski_Violations>
0

> <Lipinski_Status>
Pass

> <Reported_Activity>
Potential PPAR-γ receptor agonist / Anti-diabetic

> <Assay_Target>
PPAR-γ (PDB ID: 8DK4)

> <DOI_Reference>
10.1515/chem-2025-0216

> <Reference_Year>
2025

> <Compound_Class>
Phenolic acid

> <Compound_Superclass>
Phenolic Compound

> <Data_Source>
Open Chemistry (De Gruyter)

> <Notes>
Extracted from PubChem, screening against INSR

> <Validation_Status>
Verified

> <Fraction_CSP3>
0.0

> <Ring_Count>
1

> <Aromatic_Ring_Count>
1

> <Heavy_Atom_Count>
12

> <Molar_Refractivity>
44.77660000000002

> <QED_Score>
0.65083387330713

> <Veber_Status>
Pass

> <Ghose_Violations>
1

> <Ghose_Status>
Fail

$$$$
Syringic acid
  AfroDiabDB_Exporter

  0  0  0  0  0  0  0  0  0  0999 V2000
M  END
> <Compound_ID>
AFRO-0038

> <Compound_Name>
Syringic acid

> <Plant_Name>
Moringa oleifera

> <Common_Name>
Miracle Tree

> <Plant_Family>
Moringaceae

> <Plant_Part>
Leaf

> <Country_of_Use>
Nigeria

> <PubChem_CID>
10742

> <Canonical_SMILES>
COc1cc(C(=O)O)cc(OC)c1O

> <InChIKey>
JMSVCTWVEWCHDZ-UHFFFAOYSA-N

> <Molecular_Formula>
C9H10O5

> <Molecular_Weight>
198.174

> <LogP>
1.1076

> <HBD>
2

> <HBA>
4

> <TPSA>
75.99000000000001

> <Rotatable_Bonds>
3

> <Lipinski_Violations>
0

> <Lipinski_Status>
Pass

> <Reported_Activity>
Potential PPAR-γ receptor agonist / Anti-diabetic

> <Assay_Target>
PPAR-γ (PDB ID: 8DK4)

> <DOI_Reference>
10.1515/chem-2025-0216

> <Reference_Year>
2025

> <Compound_Class>
Phenolic acid

> <Compound_Superclass>
Phenolic Compound

> <Data_Source>
Open Chemistry (De Gruyter)

> <Notes>
Extracted from PubChem, screening against INSR

> <Validation_Status>
Verified

> <Fraction_CSP3>
0.2222222222222222

> <Ring_Count>
1

> <Aromatic_Ring_Count>
1

> <Heavy_Atom_Count>
14

> <Molar_Refractivity>
48.17010000000002

> <QED_Score>
0.7602674433200692

> <Veber_Status>
Pass

> <Ghose_Violations>
1

> <Ghose_Status>
Fail

$$$$
D-Allose
  AfroDiabDB_Exporter

  0  0  0  0  0  0  0  0  0  0999 V2000
M  END
> <Compound_ID>
AFRO-0039

> <Compound_Name>
D-Allose

> <Plant_Name>
Moringa oleifera

> <Common_Name>
Miracle Tree

> <Plant_Family>
Moringaceae

> <Plant_Part>
Leaf

> <Country_of_Use>
Nigeria

> <PubChem_CID>
439353

> <Canonical_SMILES>
O=C[C@H](O)[C@H](O)[C@@H](O)[C@H](O)CO

> <InChIKey>
GZCGUPFRVQAUEE-FSIIMWSLSA-N

> <Molecular_Formula>
C6H12O6

> <Molecular_Weight>
180.156

> <LogP>
-3.3788

> <HBD>
5

> <HBA>
6

> <TPSA>
118.22

> <Rotatable_Bonds>
5

> <Lipinski_Violations>
0

> <Lipinski_Status>
Pass

> <Reported_Activity>
Potential PPAR-γ receptor agonist / Anti-diabetic

> <Assay_Target>
PPAR-γ (PDB ID: 8DK4)

> <DOI_Reference>
10.1515/chem-2025-0216

> <Reference_Year>
2025

> <Compound_Class>
Monosaccharide

> <Compound_Superclass>
Carbohydrate

> <Data_Source>
Open Chemistry (De Gruyter)

> <Notes>
Extracted from PubChem, screening against INSR

> <Validation_Status>
Verified

> <Fraction_CSP3>
0.8333333333333334

> <Ring_Count>
0

> <Aromatic_Ring_Count>
0

> <Heavy_Atom_Count>
12

> <Molar_Refractivity>
37.177

> <QED_Score>
0.2816378107304672

> <Veber_Status>
Pass

> <Ghose_Violations>
3

> <Ghose_Status>
Fail

$$$$
Niaziminin
  AfroDiabDB_Exporter

  0  0  0  0  0  0  0  0  0  0999 V2000
M  END
> <Compound_ID>
AFRO-0040

> <Compound_Name>
Niaziminin

> <Plant_Name>
Moringa oleifera

> <Common_Name>
Miracle Tree

> <Plant_Family>
Moringaceae

> <Plant_Part>
Leaf

> <Country_of_Use>
Nigeria

> <PubChem_CID>
10023860

> <Canonical_SMILES>
CC(=O)OC1C(C(OC(C1O)C)OC2=CC=C(C=C2)CNC(=S)OC)O

> <InChIKey>
XWQBHXJFNACNQR-UHFFFAOYSA-N

> <Molecular_Formula>
C21H20O11

> <Molecular_Weight>
448.3800000000002

> <LogP>
-0.2444999999999992

> <HBD>
7

> <HBA>
11

> <TPSA>
190.28

> <Rotatable_Bonds>
4

> <Lipinski_Violations>
2

> <Lipinski_Status>
Fail

> <Reported_Activity>
Potential PPAR-γ receptor agonist / Anti-diabetic

> <Assay_Target>
PPAR-γ (PDB ID: 8DK4)

> <DOI_Reference>
10.1515/chem-2025-0216

> <Reference_Year>
2025

> <Compound_Class>
Thiocarbamate glycoside

> <Compound_Superclass>
Organosulfur Compound

> <Data_Source>
Open Chemistry (De Gruyter)

> <Notes>
Extracted from PubChem, screening against INSR

> <Validation_Status>
Verified

> <Fraction_CSP3>
0.2857142857142857

> <Ring_Count>
4

> <Aromatic_Ring_Count>
3

> <Heavy_Atom_Count>
32

> <Molar_Refractivity>
107.3096

> <QED_Score>
0.2786277523316124

> <Veber_Status>
Fail

> <Ghose_Violations>
0

> <Ghose_Status>
Pass

$$$$
Vanillin
  AfroDiabDB_Exporter

  0  0  0  0  0  0  0  0  0  0999 V2000
M  END
> <Compound_ID>
AFRO-0041

> <Compound_Name>
Vanillin

> <Plant_Name>
Moringa oleifera

> <Common_Name>
Miracle Tree

> <Plant_Family>
Moringaceae

> <Plant_Part>
Leaf

> <Country_of_Use>
Nigeria

> <PubChem_CID>
1183

> <Canonical_SMILES>
COc1cc(C=O)ccc1O

> <InChIKey>
MWOOGOJBHIARFG-UHFFFAOYSA-N

> <Molecular_Formula>
C8H8O3

> <Molecular_Weight>
152.149

> <LogP>
1.2133

> <HBD>
1

> <HBA>
3

> <TPSA>
46.53

> <Rotatable_Bonds>
2

> <Lipinski_Violations>
0

> <Lipinski_Status>
Pass

> <Reported_Activity>
Potential PPAR-γ receptor agonist / Anti-diabetic

> <Assay_Target>
PPAR-γ (PDB ID: 8DK4)

> <DOI_Reference>
10.1515/chem-2025-0216

> <Reference_Year>
2025

> <Compound_Class>
Phenolic aldehyde

> <Compound_Superclass>
Phenolic Compound

> <Data_Source>
Open Chemistry (De Gruyter)

> <Notes>
Extracted from PubChem, screening against INSR

> <Validation_Status>
Verified

> <Fraction_CSP3>
0.125

> <Ring_Count>
1

> <Aromatic_Ring_Count>
1

> <Heavy_Atom_Count>
11

> <Molar_Refractivity>
40.04630000000002

> <QED_Score>
0.6477438574453785

> <Veber_Status>
Pass

> <Ghose_Violations>
2

> <Ghose_Status>
Fail

$$$$
Mangiferin
  AfroDiabDB_Exporter

  0  0  0  0  0  0  0  0  0  0999 V2000
M  END
> <Compound_ID>
AFRO-0042

> <Compound_Name>
Mangiferin

> <Plant_Name>
Mangifera indica

> <Common_Name>
Mango

> <Plant_Family>
Anacardiaceae

> <Plant_Part>
Leaves; Bark

> <Country_of_Use>
Nigeria

> <PubChem_CID>
5281647

> <Canonical_SMILES>
O=C1c2cc(O)c(O)cc2C(=O)c2c1cc(O)c(O)c2[C@@H]1O[C@H](CO)[C@@H](O)[C@H](O)[C@H]1O

> <InChIKey>
SLXXRYBPSNCVFA-FJITVDBRSA-N

> <Molecular_Formula>
C20H18O11

> <Molecular_Weight>
434.3530000000001

> <LogP>
-1.200700000000001

> <HBD>
8

> <HBA>
11

> <TPSA>
205.21

> <Rotatable_Bonds>
2

> <Lipinski_Violations>
2

> <Lipinski_Status>
Fail

> <Reported_Activity>
Antidiabetic, hypoglycemic, antioxidant

> <Assay_Target>
α-Amylase, α-Glucosidase, PTP1B, DPP-4

> <DOI_Reference>
10.63125/anaf6b94

> <Reference_Year>
2022

> <Compound_Class>
Xanthone glycoside

> <Compound_Superclass>
Glycoside

> <Data_Source>
American Journal of Interdisciplinary Studies (American Scholarly Publishing Group Inc)

> <Notes>
Systematic review docking & MD synthesis

> <Validation_Status>
Verified

> <Fraction_CSP3>
0.3

> <Ring_Count>
4

> <Aromatic_Ring_Count>
2

> <Heavy_Atom_Count>
31

> <Molar_Refractivity>
99.1284

> <QED_Score>
0.2248385562439677

> <Veber_Status>
Fail

> <Ghose_Violations>
1

> <Ghose_Status>
Fail

$$$$
Catechins
  AfroDiabDB_Exporter

  0  0  0  0  0  0  0  0  0  0999 V2000
M  END
> <Compound_ID>
AFRO-0044

> <Compound_Name>
Catechins

> <Plant_Name>
Mangifera indica

> <Common_Name>
Mango

> <Plant_Family>
Anacardiaceae

> <Plant_Part>
Kernels; Peel

> <Country_of_Use>
Nigeria

> <PubChem_CID>
73160

> <Canonical_SMILES>
Oc1cc(O)c2c(c1)O[C@H](c1ccc(O)c(O)c1)[C@@H](O)C2

> <InChIKey>
PFTAWBLQPZVEMU-DZGCQCFKSA-N

> <Molecular_Formula>
C15H14O6

> <Molecular_Weight>
290.271

> <LogP>
1.5461

> <HBD>
5

> <HBA>
6

> <TPSA>
110.38

> <Rotatable_Bonds>
1

> <Lipinski_Violations>
0

> <Lipinski_Status>
Pass

> <Reported_Activity>
Antidiabetic, antioxidant

> <Assay_Target>
α-Amylase, α-Glucosidase

> <DOI_Reference>
10.63125/anaf6b94

> <Reference_Year>
2022

> <Compound_Class>
Flavanols

> <Compound_Superclass>
Flavonoid

> <Data_Source>
American Journal of Interdisciplinary Studies (American Scholarly Publishing Group Inc)

> <Notes>
Systematic review docking & in vitro synthesis

> <Validation_Status>
Verified

> <Fraction_CSP3>
0.2

> <Ring_Count>
3

> <Aromatic_Ring_Count>
2

> <Heavy_Atom_Count>
21

> <Molar_Refractivity>
72.62300000000002

> <QED_Score>
0.5095927314649248

> <Veber_Status>
Pass

> <Ghose_Violations>
0

> <Ghose_Status>
Pass

$$$$
Epicatechins
  AfroDiabDB_Exporter

  0  0  0  0  0  0  0  0  0  0999 V2000
M  END
> <Compound_ID>
AFRO-0045

> <Compound_Name>
Epicatechins

> <Plant_Name>
Mangifera indica

> <Common_Name>
Mango

> <Plant_Family>
Anacardiaceae

> <Plant_Part>
Kernels

> <Country_of_Use>
Nigeria

> <PubChem_CID>
72276

> <Canonical_SMILES>
Oc1cc(O)c2c(c1)O[C@@H](c1ccc(O)c(O)c1)[C@@H](O)C2

> <InChIKey>
PFTAWBLQPZVEMU-ZFWWWQNUSA-N

> <Molecular_Formula>
C15H14O6

> <Molecular_Weight>
290.271

> <LogP>
1.5461

> <HBD>
5

> <HBA>
6

> <TPSA>
110.38

> <Rotatable_Bonds>
1

> <Lipinski_Violations>
0

> <Lipinski_Status>
Pass

> <Reported_Activity>
Antidiabetic, antioxidant, insulin-sensitizing activity

> <Assay_Target>
α-Amylase, α-Glucosidase

> <DOI_Reference>
10.63125/anaf6b94

> <Reference_Year>
2022

> <Compound_Class>
Flavanols

> <Compound_Superclass>
Flavonoid

> <Data_Source>
American Journal of Interdisciplinary Studies (American Scholarly Publishing Group Inc)

> <Notes>
Systematic review docking & MD synthesis

> <Validation_Status>
Verified

> <Fraction_CSP3>
0.2

> <Ring_Count>
3

> <Aromatic_Ring_Count>
2

> <Heavy_Atom_Count>
21

> <Molar_Refractivity>
72.62300000000002

> <QED_Score>
0.5095927314649248

> <Veber_Status>
Pass

> <Ghose_Violations>
0

> <Ghose_Status>
Pass

$$$$
Gallic acid
  AfroDiabDB_Exporter

  0  0  0  0  0  0  0  0  0  0999 V2000
M  END
> <Compound_ID>
AFRO-0046

> <Compound_Name>
Gallic acid

> <Plant_Name>
Anacardium occidentale L.

> <Common_Name>
Red Cashew

> <Plant_Family>
Anacardiaceae

> <Plant_Part>
Root

> <Country_of_Use>
Nigeria

> <PubChem_CID>
370

> <Canonical_SMILES>
O=C(O)c1cc(O)c(O)c(O)c1

> <InChIKey>
LNTHITQWFMADLM-UHFFFAOYSA-N

> <Molecular_Formula>
C7H6O5

> <Molecular_Weight>
170.12

> <LogP>
0.5015999999999998

> <HBD>
4

> <HBA>
4

> <TPSA>
97.99000000000001

> <Rotatable_Bonds>
1

> <Lipinski_Violations>
0

> <Lipinski_Status>
Pass

> <Reported_Activity>
Antidiabetic, α-glucosidase inhibitor

> <Assay_Target>
PDX-1 (6F8F), SUR1 (6PZ9), Insulin kinase receptor (3EKK), GLUT1 (4PYP), α-Amylase (1B2Y), α-Glucosidase (2QMJ), Glucokinase (3S41), Glycogen Phosphorylase (4MRA), FBPase 1 (5PZX), GLP-1R (3IOL), PPAR-γ (5YCP)

> <DOI_Reference>
10.1016/j.sajb.2023.12.006

> <Reference_Year>
2024

> <Compound_Class>
Phenolic acid

> <Compound_Superclass>
Phenolic Compound

> <Data_Source>
South African Journal of Botany

> <Notes>
Isolated via column chromatography from 80% MAO extract

> <Validation_Status>
Verified

> <Fraction_CSP3>
0.0

> <Ring_Count>
1

> <Aromatic_Ring_Count>
1

> <Heavy_Atom_Count>
12

> <Molar_Refractivity>
38.39570000000001

> <QED_Score>
0.4598882295004826

> <Veber_Status>
Pass

> <Ghose_Violations>
2

> <Ghose_Status>
Fail

$$$$
picein
  AfroDiabDB_Exporter

  0  0  0  0  0  0  0  0  0  0999 V2000
M  END
> <Compound_ID>
AFRO-0047

> <Compound_Name>
picein

> <Plant_Name>
Anacardium occidentale L.

> <Common_Name>
Red Cashew

> <Plant_Family>
Anacardiaceae

> <Plant_Part>
Root

> <Country_of_Use>
Nigeria

> <PubChem_CID>
92123

> <Canonical_SMILES>
CC(=O)c1ccc(OC2OC(CO)C(O)C(O)C2O)cc1

> <InChIKey>
GOZCEKPKECLKNO-UHFFFAOYSA-N

> <Molecular_Formula>
C14H18O7

> <Molecular_Weight>
298.291

> <LogP>
-0.9321000000000006

> <HBD>
4

> <HBA>
7

> <TPSA>
116.45

> <Rotatable_Bonds>
4

> <Lipinski_Violations>
0

> <Lipinski_Status>
Pass

> <Reported_Activity>
Antidiabetic / SUR1 Binding

> <Assay_Target>
SUR1 (6PZ9) / GLUT1 (4PYP)

> <DOI_Reference>
10.1016/j.sajb.2023.12.006

> <Reference_Year>
2024

> <Compound_Class>
Phenolic glycoside

> <Compound_Superclass>
Phenolic Compound

> <Data_Source>
South African Journal of Botany

> <Notes>
Quantified via HPLC-PDA (8231.61 ng/mg)

> <Validation_Status>
Verified

> <Fraction_CSP3>
0.5

> <Ring_Count>
2

> <Aromatic_Ring_Count>
1

> <Heavy_Atom_Count>
21

> <Molar_Refractivity>
70.84170000000003

> <QED_Score>
0.5304701471736127

> <Veber_Status>
Pass

> <Ghose_Violations>
1

> <Ghose_Status>
Fail

$$$$
Taxifolin
  AfroDiabDB_Exporter

  0  0  0  0  0  0  0  0  0  0999 V2000
M  END
> <Compound_ID>
AFRO-0050

> <Compound_Name>
Taxifolin

> <Plant_Name>
Anacardium occidentale L.

> <Common_Name>
Red Cashew

> <Plant_Family>
Anacardiaceae

> <Plant_Part>
Root

> <Country_of_Use>
Nigeria

> <PubChem_CID>
439533

> <Canonical_SMILES>
O=C1c2c(O)cc(O)cc2OC(c2ccc(O)c(O)c2)C1O

> <InChIKey>
CXQWRCVTCMQVQX-UHFFFAOYSA-N

> <Molecular_Formula>
C15H12O7

> <Molecular_Weight>
304.254

> <LogP>
1.186299999999999

> <HBD>
5

> <HBA>
7

> <TPSA>
127.45

> <Rotatable_Bonds>
1

> <Lipinski_Violations>
0

> <Lipinski_Status>
Pass

> <Reported_Activity>
Antidiabetic / Kinase & Enzyme Inhibitor

> <Assay_Target>
Insulin Kinase Receptor (3EKK) / Glycogen Phosphorylase (4MRA)

> <DOI_Reference>
10.1016/j.sajb.2023.12.006

> <Reference_Year>
2023

> <Compound_Class>
Flavanonol

> <Compound_Superclass>
Flavonoid

> <Data_Source>
South African Journal of Botany

> <Notes>
Quantified via HPLC-PDA (7478.57 ng/mg

> <Validation_Status>
Verified

> <Fraction_CSP3>
0.1333333333333333

> <Ring_Count>
3

> <Aromatic_Ring_Count>
2

> <Heavy_Atom_Count>
22

> <Molar_Refractivity>
73.24950000000001

> <QED_Score>
0.5005308756296323

> <Veber_Status>
Pass

> <Ghose_Violations>
0

> <Ghose_Status>
Pass

$$$$
Naringenin
  AfroDiabDB_Exporter

  0  0  0  0  0  0  0  0  0  0999 V2000
M  END
> <Compound_ID>
AFRO-0052

> <Compound_Name>
Naringenin

> <Plant_Name>
Anacardium occidentale L.

> <Common_Name>
Red Cashew

> <Plant_Family>
Anacardiaceae

> <Plant_Part>
Root

> <Country_of_Use>
Nigeria

> <PubChem_CID>
932

> <Canonical_SMILES>
O=C1CC(c2ccc(O)cc2)Oc2cc(O)cc(O)c21

> <InChIKey>
FTVWIRXFELQLPI-UHFFFAOYSA-N

> <Molecular_Formula>
C15H12O5

> <Molecular_Weight>
272.256

> <LogP>
2.509900000000001

> <HBD>
3

> <HBA>
5

> <TPSA>
86.99000000000001

> <Rotatable_Bonds>
1

> <Lipinski_Violations>
0

> <Lipinski_Status>
Pass

> <Reported_Activity>
Antidiabetic / Multi-target

> <Assay_Target>
Insulin Kinase Receptor (3EKK) / SUR1 (6PZ9)

> <DOI_Reference>
10.1016/j.sajb.2023.12.006

> <Reference_Year>
2023

> <Compound_Class>
Flavanone

> <Compound_Superclass>
Flavonoid

> <Data_Source>
South African Journal of Botany

> <Notes>
Quantified via HPLC-PDA (94.86 ng/mg)

> <Validation_Status>
Verified

> <Fraction_CSP3>
0.1333333333333333

> <Ring_Count>
3

> <Aromatic_Ring_Count>
2

> <Heavy_Atom_Count>
20

> <Molar_Refractivity>
70.19490000000002

> <QED_Score>
0.7421139126791214

> <Veber_Status>
Pass

> <Ghose_Violations>
0

> <Ghose_Status>
Pass

$$$$
Marsectohexol
  AfroDiabDB_Exporter

  0  0  0  0  0  0  0  0  0  0999 V2000
M  END
> <Compound_ID>
AFRO-0053

> <Compound_Name>
Marsectohexol

> <Plant_Name>
Gongronema latifolium Benth.

> <Common_Name>
Bushbuck (English), Utazi (Igbo), Madumaro/Arokeke (Yoruba), Utasi (Ibibio/Efik)

> <Plant_Family>
Asclepiadaceae

> <Plant_Part>
Leaf

> <Country_of_Use>
Nigeria

> <PubChem_CID>
15560121

> <Canonical_SMILES>
CC(O)C1CCC2(O)C3(O)CC=C4CC(O)CCC4(C)C3C(O)C(O)C12C

> <InChIKey>
ZKHPKHVTGSOEKJ-UHFFFAOYSA-N

> <Molecular_Formula>
C21H34O6

> <Molecular_Weight>
382.4970000000001

> <LogP>
0.4784999999999996

> <HBD>
6

> <HBA>
6

> <TPSA>
121.38

> <Rotatable_Bonds>
1

> <Lipinski_Violations>
1

> <Lipinski_Status>
Pass

> <Reported_Activity>
α-Amylase inhibitor, blood glucose level reduction

> <Assay_Target>
Porcine Pancreatic α-Amylase (PPA), Human Pancreatic α-Amylase (HPA), Human Salivary α-Amylase (HSA)

> <DOI_Reference>
10.3389/fmolb.2022.866719

> <Reference_Year>
2022

> <Compound_Class>
Steroidal Pregnane

> <Compound_Superclass>
Steroid

> <Data_Source>
Frontiers in Molecular Biosciences

> <Notes>
Demonstrated an IC50​ of 10.01 μM against porcine pancreatic α-amylase, outperforming reference acarbose (IC50​=13.47 μM).

> <Validation_Status>
Verified

> <Fraction_CSP3>
0.9047619047619048

> <Ring_Count>
4

> <Aromatic_Ring_Count>
0

> <Heavy_Atom_Count>
27

> <Molar_Refractivity>
98.57980000000003

> <QED_Score>
0.3669805148518275

> <Veber_Status>
Pass

> <Ghose_Violations>
0

> <Ghose_Status>
Pass

$$$$
Chicoric acid
  AfroDiabDB_Exporter

  0  0  0  0  0  0  0  0  0  0999 V2000
M  END
> <Compound_ID>
AFRO-0055

> <Compound_Name>
Chicoric acid

> <Plant_Name>
Gongronema latifolium

> <Common_Name>
Bushbuck (English), Utazi (Igbo), Madumaro/Arokeke (Yoruba), Utasi (Ibibio/Efik)

> <Plant_Family>
Asclepiadaceae

> <Plant_Part>
Leaf

> <Country_of_Use>
Nigeria

> <PubChem_CID>
5281764

> <Canonical_SMILES>
O=C(C=Cc1ccc(O)c(O)c1)OC(C(=O)O)C(OC(=O)C=Cc1ccc(O)c(O)c1)C(=O)O

> <InChIKey>
YDDGKXBLOXEEMN-UHFFFAOYSA-N

> <Molecular_Formula>
C22H18O12

> <Molecular_Weight>
474.3740000000002

> <LogP>
1.2284

> <HBD>
6

> <HBA>
10

> <TPSA>
208.12

> <Rotatable_Bonds>
9

> <Lipinski_Violations>
1

> <Lipinski_Status>
Pass

> <Reported_Activity>
Multi-target T2DM inhibitor, GLP-1R agonist

> <Assay_Target>
GSK-3β, GLP-1R, Human Aldose Reductase

> <DOI_Reference>
10.1007/s42452-021-04880-2

> <Reference_Year>
2022

> <Compound_Class>
Hydroxycinnamic acid

> <Compound_Superclass>
Phenolic Compound

> <Data_Source>
SN Applied Sciences

> <Notes>
Exhibited high stability with GLP-1R (ΔG=−62.038 kcal/mol) and high docking scores across all three targets.

> <Validation_Status>
Verified

> <Fraction_CSP3>
0.09090909090909091

> <Ring_Count>
2

> <Aromatic_Ring_Count>
2

> <Heavy_Atom_Count>
34

> <Molar_Refractivity>
112.6428

> <QED_Score>
0.1722185031058448

> <Veber_Status>
Fail

> <Ghose_Violations>
0

> <Ghose_Status>
Pass

$$$$
Rosmarinic acid
  AfroDiabDB_Exporter

  0  0  0  0  0  0  0  0  0  0999 V2000
M  END
> <Compound_ID>
AFRO-0056

> <Compound_Name>
Rosmarinic acid

> <Plant_Name>
Gongronema latifolium

> <Common_Name>
Bushbuck (English), Utazi (Igbo), Madumaro/Arokeke (Yoruba), Utasi (Ibibio/Efik)

> <Plant_Family>
Asclepiadaceae

> <Plant_Part>
Leaf

> <Country_of_Use>
Nigeria

> <PubChem_CID>
5281792

> <Canonical_SMILES>
O=C(C=Cc1ccc(O)c(O)c1)OC(Cc1ccc(O)c(O)c1)C(=O)O

> <InChIKey>
DOUMFZQKYFQNTF-UHFFFAOYSA-N

> <Molecular_Formula>
C18H16O8

> <Molecular_Weight>
360.3180000000001

> <LogP>
1.7613

> <HBD>
5

> <HBA>
7

> <TPSA>
144.52

> <Rotatable_Bonds>
6

> <Lipinski_Violations>
0

> <Lipinski_Status>
Pass

> <Reported_Activity>
Aldose Reductase Inhibitors (ARIs) and Glycogen Synthase Kinase-3 Beta (GSK-3β) Inhibitors

> <Assay_Target>
Human Aldose Reductase, GSK-3β, GLP-1R

> <DOI_Reference>
10.1007/s42452-021-04880-2

> <Reference_Year>
2022

> <Compound_Class>
Hydroxycinnamic acid

> <Compound_Superclass>
Phenolic Compound

> <Data_Source>
SN Applied Sciences

> <Notes>
Lowest binding energy against Aldose Reductase with an XP glide score of −15.385 kcal/mol.

> <Validation_Status>
Verified

> <Fraction_CSP3>
0.1111111111111111

> <Ring_Count>
2

> <Aromatic_Ring_Count>
2

> <Heavy_Atom_Count>
26

> <Molar_Refractivity>
89.79700000000004

> <QED_Score>
0.2976482103733651

> <Veber_Status>
Fail

> <Ghose_Violations>
0

> <Ghose_Status>
Pass

$$$$
Moracin P
  AfroDiabDB_Exporter

  0  0  0  0  0  0  0  0  0  0999 V2000
M  END
> <Compound_ID>
AFRO-0057

> <Compound_Name>
Moracin P

> <Plant_Name>
Morus mesozygia

> <Common_Name>
African Mulberry

> <Plant_Family>
Moraceae

> <Plant_Part>
Root bark

> <Country_of_Use>
Nigeria

> <PubChem_CID>
25208124

> <Canonical_SMILES>
CC1(C)Oc2cc3oc(-c4cc(O)cc(O)c4)cc3cc2CC1O

> <InChIKey>
QFUCSEIKNTUPPA-UHFFFAOYSA-N

> <Molecular_Formula>
C19H18O5

> <Molecular_Weight>
326.3480000000001

> <LogP>
3.585400000000003

> <HBD>
3

> <HBA>
5

> <TPSA>
83.06

> <Rotatable_Bonds>
1

> <Lipinski_Violations>
0

> <Lipinski_Status>
Pass

> <Reported_Activity>
α-glucosidase inhibition; DPP-4 inhibition

> <Assay_Target>
α-glucosidase, DPP-4

> <DOI_Reference>
10.3389/fphar.2024.1338333

> <Reference_Year>
2024

> <Compound_Class>
Arylbenzofuran

> <Compound_Superclass>
Phenylpropanoid

> <Data_Source>
Frontiers in Pharmacology

> <Notes>
Strong α-glucosidase inhibitor

> <Validation_Status>
Verified

> <Fraction_CSP3>
0.2631578947368421

> <Ring_Count>
4

> <Aromatic_Ring_Count>
3

> <Heavy_Atom_Count>
24

> <Molar_Refractivity>
89.39740000000003

> <QED_Score>
0.6364230760987256

> <Veber_Status>
Pass

> <Ghose_Violations>
0

> <Ghose_Status>
Pass

$$$$
Moracin M
  AfroDiabDB_Exporter

  0  0  0  0  0  0  0  0  0  0999 V2000
M  END
> <Compound_ID>
AFRO-0058

> <Compound_Name>
Moracin M

> <Plant_Name>
Morus mesozygia

> <Common_Name>
African Mulberry

> <Plant_Family>
Moraceae

> <Plant_Part>
Root bark

> <Country_of_Use>
Nigeria

> <PubChem_CID>
185848

> <Canonical_SMILES>
Oc1cc(O)cc(-c2cc3ccc(O)cc3o2)c1

> <InChIKey>
LHPRYOJTASOZGJ-UHFFFAOYSA-N

> <Molecular_Formula>
C14H10O4

> <Molecular_Weight>
242.23

> <LogP>
3.2166

> <HBD>
3

> <HBA>
4

> <TPSA>
73.83

> <Rotatable_Bonds>
1

> <Lipinski_Violations>
0

> <Lipinski_Status>
Pass

> <Reported_Activity>
α-glucosidase inhibition; DPP-4 inhibition

> <Assay_Target>
α-glucosidase, DPP-4

> <DOI_Reference>
10.3389/fphar.2024.1338333

> <Reference_Year>
2024

> <Compound_Class>
Arylbenzofuran

> <Compound_Superclass>
Phenylpropanoid

> <Data_Source>
Frontiers in Pharmacology

> <Notes>
Isolated from root bark extract

> <Validation_Status>
Verified

> <Fraction_CSP3>
0.0

> <Ring_Count>
3

> <Aromatic_Ring_Count>
3

> <Heavy_Atom_Count>
18

> <Molar_Refractivity>
66.64440000000003

> <QED_Score>
0.6121514161170469

> <Veber_Status>
Pass

> <Ghose_Violations>
1

> <Ghose_Status>
Fail

$$$$
S-methylcysteinesulfoxide (SMCS)
  AfroDiabDB_Exporter

  0  0  0  0  0  0  0  0  0  0999 V2000
M  END
> <Compound_ID>
AFRO-0059

> <Compound_Name>
S-methylcysteinesulfoxide (SMCS)

> <Plant_Name>
Allium cepa L.

> <Common_Name>
Onion

> <Plant_Family>
Alliaceae

> <Plant_Part>
Bulb

> <Country_of_Use>
Nigeria

> <PubChem_CID>
82142

> <Canonical_SMILES>
CS(=O)CC(N)C(=O)O

> <InChIKey>
ZZLHPCSGGOGHFW-UHFFFAOYSA-N

> <Molecular_Formula>
C4H9NO3S

> <Molecular_Weight>
151.187

> <LogP>
-1.223199999999999

> <HBD>
2

> <HBA>
3

> <TPSA>
80.39

> <Rotatable_Bonds>
3

> <Lipinski_Violations>
0

> <Lipinski_Status>
Pass

> <Reported_Activity>
Antidiabetic, insulin secretagogue

> <Assay_Target>
Pancreatic β-cells, liver insulin-inactivating sites

> <DOI_Reference>
10.4172/2155-6156.1000546

> <Reference_Year>
2015

> <Compound_Class>
Organosulfur / Amino acid derivative

> <Compound_Superclass>
Organosulfur Compound

> <Data_Source>
Journal of Diabetes & Metabolism

> <Notes>
Stimulates insulin secretion; competes with insulin for liver inactivating sites.

> <Validation_Status>
Verified

> <Fraction_CSP3>
0.75

> <Ring_Count>
0

> <Aromatic_Ring_Count>
0

> <Heavy_Atom_Count>
9

> <Molar_Refractivity>
34.5446

> <QED_Score>
0.5293332577668588

> <Veber_Status>
Pass

> <Ghose_Violations>
4

> <Ghose_Status>
Fail

$$$$
S-allylcysteinesulfoxide (SACS)
  AfroDiabDB_Exporter

  0  0  0  0  0  0  0  0  0  0999 V2000
M  END
> <Compound_ID>
AFRO-0060

> <Compound_Name>
S-allylcysteinesulfoxide (SACS)

> <Plant_Name>
Allium sativum L.

> <Common_Name>
Garlic

> <Plant_Family>
Alliaceae

> <Plant_Part>
Clove

> <Country_of_Use>
Nigeria

> <PubChem_CID>
121922

> <Canonical_SMILES>
C=CCS(=O)CC(N)C(=O)O

> <InChIKey>
XUHLIQGRKRUKPH-UHFFFAOYSA-N

> <Molecular_Formula>
C6H11NO3S

> <Molecular_Weight>
177.225

> <LogP>
-0.6669999999999991

> <HBD>
2

> <HBA>
3

> <TPSA>
80.39

> <Rotatable_Bonds>
5

> <Lipinski_Violations>
0

> <Lipinski_Status>
Pass

> <Reported_Activity>
Antidiabetic, antioxidant, gluconeogenesis inhibitor

> <Assay_Target>
Hepatic gluconeogenic enzymes, pancreatic β-cells

> <DOI_Reference>
10.4172/2155-6156.1000546

> <Reference_Year>
2015

> <Compound_Class>
Organosulfur / Amino acid derivative

> <Compound_Superclass>
Organosulfur Compound

> <Data_Source>
Journal of Diabetes & Metabolism

> <Notes>
Inhibits gluconeogenesis and lipid peroxidation; precursor of allicin.

> <Validation_Status>
Verified

> <Fraction_CSP3>
0.5

> <Ring_Count>
0

> <Aromatic_Ring_Count>
0

> <Heavy_Atom_Count>
11

> <Molar_Refractivity>
43.68460000000001

> <QED_Score>
0.5458370887986503

> <Veber_Status>
Pass

> <Ghose_Violations>
2

> <Ghose_Status>
Fail

$$$$
Lophenol
  AfroDiabDB_Exporter

  0  0  0  0  0  0  0  0  0  0999 V2000
M  END
> <Compound_ID>
AFRO-0061

> <Compound_Name>
Lophenol

> <Plant_Name>
Aloe vera (L.) Burm.f.

> <Common_Name>
Aloe vera

> <Plant_Family>
Asphodelaceae

> <Plant_Part>
Leaf gel; pulp

> <Country_of_Use>
Nigeria

> <PubChem_CID>
160482

> <Canonical_SMILES>
CC(C)CCCC(C)C1CCC2C3=CCC4C(C)C(O)CCC4(C)C3CCC21C

> <InChIKey>
LMYZQUNLYGJIHI-UHFFFAOYSA-N

> <Molecular_Formula>
C28H48O

> <Molecular_Weight>
400.6910000000003

> <LogP>
7.634700000000009

> <HBD>
1

> <HBA>
1

> <TPSA>
20.23

> <Rotatable_Bonds>
5

> <Lipinski_Violations>
1

> <Lipinski_Status>
Pass

> <Reported_Activity>
Antidiabetic, blood glucose lowering

> <Assay_Target>
Pancreatic β-cells, carbohydrate metabolizing enzymes

> <DOI_Reference>
10.4172/2155-6156.1000546

> <Reference_Year>
2015

> <Compound_Class>
Phytosterol

> <Compound_Superclass>
Steroid

> <Data_Source>
Journal of Diabetes & Metabolism

> <Notes>
Causes significant reduction in HbA1c levels.

> <Validation_Status>
Verified

> <Fraction_CSP3>
0.9285714285714286

> <Ring_Count>
4

> <Aromatic_Ring_Count>
0

> <Heavy_Atom_Count>
29

> <Molar_Refractivity>
123.5998000000001

> <QED_Score>
0.4701292988800478

> <Veber_Status>
Pass

> <Ghose_Violations>
1

> <Ghose_Status>
Fail

$$$$
Catharanthine
  AfroDiabDB_Exporter

  0  0  0  0  0  0  0  0  0  0999 V2000
M  END
> <Compound_ID>
AFRO-0062

> <Compound_Name>
Catharanthine

> <Plant_Name>
Catharanthus roseus (L.) G.Don

> <Common_Name>
Madagascar Periwinkle

> <Plant_Family>
Apocynaceae

> <Plant_Part>
Fresh leaf juice

> <Country_of_Use>
Nigeria, UK

> <PubChem_CID>
5458190

> <Canonical_SMILES>
CCC1=CC2CN3CCc4c([nH]c5ccccc45)C(C(=O)OC)(C2)C13

> <InChIKey>
CMKFQVZJOWHHDV-UHFFFAOYSA-N

> <Molecular_Formula>
C21H24N2O2

> <Molecular_Weight>
336.4350000000002

> <LogP>
3.175300000000002

> <HBD>
1

> <HBA>
3

> <TPSA>
45.33

> <Rotatable_Bonds>
2

> <Lipinski_Violations>
0

> <Lipinski_Status>
Pass

> <Reported_Activity>
Hypoglycemic, antidiabetic

> <Assay_Target>
Hepatic glucose metabolizing enzymes

> <DOI_Reference>
10.4172/2155-6156.1000546

> <Reference_Year>
2015

> <Compound_Class>
Terpenoid Indole Alkaloid

> <Compound_Superclass>
Alkaloid

> <Data_Source>
Journal of Diabetes & Metabolism

> <Notes>
Increases hepatic utilization of glucose.

> <Validation_Status>
Verified

> <Fraction_CSP3>
0.4761904761904762

> <Ring_Count>
6

> <Aromatic_Ring_Count>
2

> <Heavy_Atom_Count>
25

> <Molar_Refractivity>
97.53870000000005

> <QED_Score>
0.6766726151242263

> <Veber_Status>
Pass

> <Ghose_Violations>
0

> <Ghose_Status>
Pass

$$$$
Vindoline
  AfroDiabDB_Exporter

  0  0  0  0  0  0  0  0  0  0999 V2000
M  END
> <Compound_ID>
AFRO-0063

> <Compound_Name>
Vindoline

> <Plant_Name>
Catharanthus roseus (L.) G.Don

> <Common_Name>
Madagascar Periwinkle

> <Plant_Family>
Apocynaceae

> <Plant_Part>
Fresh leaf juice

> <Country_of_Use>
Nigeria, UK

> <PubChem_CID>
260535

> <Canonical_SMILES>
CCC12C=CCN3CCC4(c5ccc(OC)cc5N(C)C4C(O)(C(=O)OC)C1OC(C)=O)C32

> <InChIKey>
CXBGOBGJHGGWIE-UHFFFAOYSA-N

> <Molecular_Formula>
C25H32N2O6

> <Molecular_Weight>
456.5390000000003

> <LogP>
1.6413

> <HBD>
1

> <HBA>
8

> <TPSA>
88.53999999999999

> <Rotatable_Bonds>
4

> <Lipinski_Violations>
0

> <Lipinski_Status>
Pass

> <Reported_Activity>
Hypoglycemic, antidiabetic

> <Assay_Target>
Hepatic glycogen synthase, G6PDH

> <DOI_Reference>
10.4172/2155-6156.1000546

> <Reference_Year>
2015

> <Compound_Class>
Terpenoid Indole Alkaloid

> <Compound_Superclass>
Alkaloid

> <Data_Source>
Journal of Diabetes & Metabolism

> <Notes>
Suppresses gluconeogenic enzymes.

> <Validation_Status>
Verified

> <Fraction_CSP3>
0.6

> <Ring_Count>
5

> <Aromatic_Ring_Count>
1

> <Heavy_Atom_Count>
33

> <Molar_Refractivity>
121.2248000000001

> <QED_Score>
0.540537430839543

> <Veber_Status>
Pass

> <Ghose_Violations>
0

> <Ghose_Status>
Pass

$$$$
Cinnamaldehyde
  AfroDiabDB_Exporter

  0  0  0  0  0  0  0  0  0  0999 V2000
M  END
> <Compound_ID>
AFRO-0064

> <Compound_Name>
Cinnamaldehyde

> <Plant_Name>
Cinnamomum cassia

> <Common_Name>
Chinese cinnamon

> <Plant_Family>
Lauraceae

> <Plant_Part>
Bark

> <Country_of_Use>
Nigeria

> <PubChem_CID>
637511

> <Canonical_SMILES>
O=CC=Cc1ccccc1

> <InChIKey>
KJPRLNWUNMBNBZ-UHFFFAOYSA-N

> <Molecular_Formula>
C9H8O

> <Molecular_Weight>
132.162

> <LogP>
1.8987

> <HBD>
0

> <HBA>
1

> <TPSA>
17.07

> <Rotatable_Bonds>
2

> <Lipinski_Violations>
0

> <Lipinski_Status>
Pass

> <Reported_Activity>
Insulin mimetic, antidiabetic

> <Assay_Target>
3T3-L1 Adipocytes, insulin pathways

> <DOI_Reference>
10.4172/2155-6156.1000546

> <Reference_Year>
2015

> <Compound_Class>
Phenylpropanoid

> <Compound_Superclass>
Phenylpropanoid

> <Data_Source>
Journal of Diabetes & Metabolism

> <Notes>
Enhances insulin action and increases glucose uptake.

> <Validation_Status>
Verified

> <Fraction_CSP3>
0.0

> <Ring_Count>
1

> <Aromatic_Ring_Count>
1

> <Heavy_Atom_Count>
10

> <Molar_Refractivity>
41.54000000000002

> <QED_Score>
0.4433687822838736

> <Veber_Status>
Pass

> <Ghose_Violations>
2

> <Ghose_Status>
Fail

$$$$
Beta-sitosterol
  AfroDiabDB_Exporter

  0  0  0  0  0  0  0  0  0  0999 V2000
M  END
> <Compound_ID>
AFRO-0065

> <Compound_Name>
Beta-sitosterol

> <Plant_Name>
Coccinia indica

> <Common_Name>
Ivy gourd

> <Plant_Family>
Cucurbitaceae

> <Plant_Part>
Leaves

> <Country_of_Use>
Nigeria

> <PubChem_CID>
222284

> <Canonical_SMILES>
CCC(CCC(C)C1CCC2C3CC=C4CC(O)CCC4(C)C3CCC12C)C(C)C

> <InChIKey>
KZJWDPNRJALLNS-UHFFFAOYSA-N

> <Molecular_Formula>
C29H50O

> <Molecular_Weight>
414.7180000000003

> <LogP>
8.02480000000001

> <HBD>
1

> <HBA>
1

> <TPSA>
20.23

> <Rotatable_Bonds>
6

> <Lipinski_Violations>
1

> <Lipinski_Status>
Pass

> <Reported_Activity>
Hypoglycemic

> <Assay_Target>
Glucose-6-phosphatase, glycogen synthase

> <DOI_Reference>
10.4172/2155-6156.1000546

> <Reference_Year>
2015

> <Compound_Class>
Phytosterol

> <Compound_Superclass>
Steroid

> <Data_Source>
Journal of Diabetes & Metabolism

> <Notes>
Suppresses key gluconeogenic enzymes.

> <Validation_Status>
Verified

> <Fraction_CSP3>
0.9310344827586207

> <Ring_Count>
4

> <Aromatic_Ring_Count>
0

> <Heavy_Atom_Count>
30

> <Molar_Refractivity>
128.2168000000001

> <QED_Score>
0.436095641737511

> <Veber_Status>
Pass

> <Ghose_Violations>
1

> <Ghose_Status>
Fail

$$$$
Leucopelargonidin derivative
  AfroDiabDB_Exporter

  0  0  0  0  0  0  0  0  0  0999 V2000
M  END
> <Compound_ID>
AFRO-0066

> <Compound_Name>
Leucopelargonidin derivative

> <Plant_Name>
Ficus bengalensis Linn.

> <Common_Name>
Indian Banyan tree

> <Plant_Family>
Moraceae

> <Plant_Part>
Bark; leaves

> <Country_of_Use>
Nigeria

> <PubChem_CID>
282014

> <Canonical_SMILES>
Oc1ccc(C2Oc3cc(O)cc(O)c3CC2O)cc1

> <InChIKey>
RSYUFYQTACJFML-UHFFFAOYSA-N

> <Molecular_Formula>
C15H14O5

> <Molecular_Weight>
274.272

> <LogP>
1.8405

> <HBD>
4

> <HBA>
5

> <TPSA>
90.15

> <Rotatable_Bonds>
1

> <Lipinski_Violations>
0

> <Lipinski_Status>
Pass

> <Reported_Activity>
Hypoglycemic, insulin secretagogue

> <Assay_Target>
Pancreatic β-cells, insulinase

> <DOI_Reference>
10.4172/2155-6156.1000546

> <Reference_Year>
2015

> <Compound_Class>
Flavonoid / Flavan-3,4-diol

> <Compound_Superclass>
Flavonoid

> <Data_Source>
Journal of Diabetes & Metabolism

> <Notes>
Stimulates insulin secretion and inhibits insulinase activity.

> <Validation_Status>
Verified

> <Fraction_CSP3>
0.2

> <Ring_Count>
3

> <Aromatic_Ring_Count>
2

> <Heavy_Atom_Count>
20

> <Molar_Refractivity>
70.95820000000003

> <QED_Score>
0.6368099492481563

> <Veber_Status>
Pass

> <Ghose_Violations>
0

> <Ghose_Status>
Pass

$$$$
Charantin
  AfroDiabDB_Exporter

  0  0  0  0  0  0  0  0  0  0999 V2000
M  END
> <Compound_ID>
AFRO-0067

> <Compound_Name>
Charantin

> <Plant_Name>
Momordica charantia / M. cymbalaria

> <Common_Name>
Bitter Melon

> <Plant_Family>
Cucurbitaceae

> <Plant_Part>
Fruit pulp, seeds

> <Country_of_Use>
Nigeria

> <PubChem_CID>
296119

> <Canonical_SMILES>
CCC(CCC(C)C1CCC2C3CC=C4CC(OC5OC(CO)C(O)C(O)C5O)CCC4(C)C3CCC12C)C(C)C

> <InChIKey>
NPJICTMALKLTFW-UHFFFAOYSA-N

> <Molecular_Formula>
C35H60O6

> <Molecular_Weight>
576.8590000000002

> <LogP>
5.849000000000006

> <HBD>
4

> <HBA>
6

> <TPSA>
99.38000000000001

> <Rotatable_Bonds>
9

> <Lipinski_Violations>
2

> <Lipinski_Status>
Fail

> <Reported_Activity>
Hypoglycemic, antidiabetic

> <Assay_Target>
Pancreatic β-cells, gluconeogenic enzymes

> <DOI_Reference>
10.4172/2155-6156.1000546

> <Reference_Year>
2015

> <Compound_Class>
Steroidal Saponin Glycoside

> <Compound_Superclass>
Steroid

> <Data_Source>
Journal of Diabetes & Metabolism

> <Notes>
Exerts extra-pancreatic glycemic control and stimulates insulin secretion.

> <Validation_Status>
Verified

> <Fraction_CSP3>
0.9428571428571428

> <Ring_Count>
5

> <Aromatic_Ring_Count>
0

> <Heavy_Atom_Count>
41

> <Molar_Refractivity>
160.8501999999998

> <QED_Score>
0.2571732771347309

> <Veber_Status>
Pass

> <Ghose_Violations>
3

> <Ghose_Status>
Fail

$$$$
Senegin-II
  AfroDiabDB_Exporter

  0  0  0  0  0  0  0  0  0  0999 V2000
M  END
> <Compound_ID>
AFRO-0068

> <Compound_Name>
Senegin-II

> <Plant_Name>
Polygala senega L.

> <Common_Name>
Seneca snakeroot

> <Plant_Family>
Polygalaceae

> <Plant_Part>
Rhizomes

> <Country_of_Use>
Nigeria

> <PubChem_CID>
11953920

> <Canonical_SMILES>
COc1ccc(C=CC(=O)OC2C(C)OC(OC(=O)C34CCC(C)(C)CC3C3=CCC5C6(C)CC(O)C(OC7OC(CO)C(O)C(O)C7O)C(C)(C(=O)O)C6CCC5(C)C3(CO)CC4)C(OC3OC(C)C(OC4OCC(OC5OC(CO)C(O)C(O)C5O)C(O)C4O)C(O)C3O)C2O)cc1OC

> <InChIKey>
MNXFXXWQAAMVMW-UHFFFAOYSA-N

> <Molecular_Formula>
C70H104O32

> <Molecular_Weight>
1457.570000000001

> <LogP>
-2.227399999999992

> <HBD>
16

> <HBA>
31

> <TPSA>
494.8800000000002

> <Rotatable_Bonds>
19

> <Lipinski_Violations>
3

> <Lipinski_Status>
Fail

> <Reported_Activity>
Antidiabetic, insulin sensitizer

> <Assay_Target>
Liver glucose output pathways

> <DOI_Reference>
10.4172/2155-6156.1000546

> <Reference_Year>
2015

> <Compound_Class>
Triterpenoid Saponin Glycoside

> <Compound_Superclass>
Saponin

> <Data_Source>
Journal of Diabetes & Metabolism

> <Notes>
Decreases hepatic glucose output without altering plasma insulin concentration.

> <Validation_Status>
Verified

> <Fraction_CSP3>
0.8142857142857143

> <Ring_Count>
11

> <Aromatic_Ring_Count>
1

> <Heavy_Atom_Count>
102

> <Molar_Refractivity>
343.8248000000003

> <QED_Score>
0.03016830218769657

> <Veber_Status>
Fail

> <Ghose_Violations>
4

> <Ghose_Status>
Fail

$$$$
Pterostilbene
  AfroDiabDB_Exporter

  0  0  0  0  0  0  0  0  0  0999 V2000
M  END
> <Compound_ID>
AFRO-0070

> <Compound_Name>
Pterostilbene

> <Plant_Name>
Pterocarpus marsupium

> <Common_Name>
Indian Kino

> <Plant_Family>
Fabaceae

> <Plant_Part>
Bark

> <Country_of_Use>
Nigeria

> <PubChem_CID>
5281727

> <Canonical_SMILES>
COc1cc(C=Cc2ccc(O)cc2)cc(OC)c1

> <InChIKey>
VLEUZFDZJKSGMX-UHFFFAOYSA-N

> <Molecular_Formula>
C16H16O3

> <Molecular_Weight>
256.301

> <LogP>
3.579800000000002

> <HBD>
1

> <HBA>
3

> <TPSA>
38.69

> <Rotatable_Bonds>
4

> <Lipinski_Violations>
0

> <Lipinski_Status>
Pass

> <Reported_Activity>
Antidiabetic, antioxidant

> <Assay_Target>
Pancreatic β-cells

> <DOI_Reference>
10.4172/2155-6156.1000546

> <Reference_Year>
2015

> <Compound_Class>
Stilbenoid / Flavonoid

> <Compound_Superclass>
Flavonoid

> <Data_Source>
Journal of Diabetes & Metabolism

> <Notes>
Enhances insulin secretion.

> <Validation_Status>
Verified

> <Fraction_CSP3>
0.125

> <Ring_Count>
2

> <Aromatic_Ring_Count>
2

> <Heavy_Atom_Count>
19

> <Molar_Refractivity>
76.58080000000004

> <QED_Score>
0.8496677559492319

> <Veber_Status>
Pass

> <Ghose_Violations>
1

> <Ghose_Status>
Fail

$$$$
Mycaminose
  AfroDiabDB_Exporter

  0  0  0  0  0  0  0  0  0  0999 V2000
M  END
> <Compound_ID>
AFRO-0071

> <Compound_Name>
Mycaminose

> <Plant_Name>
Syzygium cumini

> <Common_Name>
Java Plum

> <Plant_Family>
Myrtaceae

> <Plant_Part>
Seeds; leaves; fruit pulp

> <Country_of_Use>
Nigeria

> <PubChem_CID>
160504

> <Canonical_SMILES>
CC(O)C(O)C(C(O)C=O)N(C)C

> <InChIKey>
IJUPCLYLISRDRA-UHFFFAOYSA-N

> <Molecular_Formula>
C8H17NO4

> <Molecular_Weight>
191.227

> <LogP>
-1.781899999999999

> <HBD>
3

> <HBA>
5

> <TPSA>
80.99999999999999

> <Rotatable_Bonds>
5

> <Lipinski_Violations>
0

> <Lipinski_Status>
Pass

> <Reported_Activity>
Hypoglycemic, peripheral glucose utilization activator

> <Assay_Target>
Peripheral glucose utilization kinases

> <DOI_Reference>
10.4172/2155-6156.1000546

> <Reference_Year>
2015

> <Compound_Class>
Amino Sugar Glycoside

> <Compound_Superclass>
Carbohydrate

> <Data_Source>
Journal of Diabetes & Metabolism

> <Notes>
Stimulates kinases involved in peripheral glucose utilization.

> <Validation_Status>
Verified

> <Fraction_CSP3>
0.875

> <Ring_Count>
0

> <Aromatic_Ring_Count>
0

> <Heavy_Atom_Count>
13

> <Molar_Refractivity>
47.23340000000002

> <QED_Score>
0.4475069885509918

> <Veber_Status>
Pass

> <Ghose_Violations>
2

> <Ghose_Status>
Fail

$$$$
Trigonelline
  AfroDiabDB_Exporter

  0  0  0  0  0  0  0  0  0  0999 V2000
M  END
> <Compound_ID>
AFRO-0072

> <Compound_Name>
Trigonelline

> <Plant_Name>
Trigonella foenum-graecum L.

> <Common_Name>
Fenugreek

> <Plant_Family>
Fabaceae

> <Plant_Part>
Seeds

> <Country_of_Use>
Nigeria

> <PubChem_CID>
5570

> <Canonical_SMILES>
C[n+]1cccc(C(=O)[O-])c1

> <InChIKey>
WWNNZCOKKKDOPX-UHFFFAOYSA-N

> <Molecular_Formula>
C7H7NO2

> <Molecular_Weight>
137.138

> <LogP>
-1.1254

> <HBD>
0

> <HBA>
2

> <TPSA>
44.01

> <Rotatable_Bonds>
1

> <Lipinski_Violations>
0

> <Lipinski_Status>
Pass

> <Reported_Activity>
Antidiabetic, insulin secretagogue

> <Assay_Target>
Pancreatic β-cells, intestinal disaccharidases

> <DOI_Reference>
10.4172/2155-6156.1000546

> <Reference_Year>
2015

> <Compound_Class>
Pyridine Alkaloid

> <Compound_Superclass>
Alkaloid

> <Data_Source>
Journal of Diabetes & Metabolism

> <Notes>
Delays carbohydrate digestion/absorption and increases glucose-induced insulin secretion.

> <Validation_Status>
Verified

> <Fraction_CSP3>
0.1428571428571428

> <Ring_Count>
1

> <Aromatic_Ring_Count>
1

> <Heavy_Atom_Count>
10

> <Molar_Refractivity>
31.94849999999999

> <QED_Score>
0.4598108691495764

> <Veber_Status>
Pass

> <Ghose_Violations>
4

> <Ghose_Status>
Fail

$$$$
4-Hydroxyisoleucine
  AfroDiabDB_Exporter

  0  0  0  0  0  0  0  0  0  0999 V2000
M  END
> <Compound_ID>
AFRO-0073

> <Compound_Name>
4-Hydroxyisoleucine

> <Plant_Name>
Trigonella foenum-graecum L.

> <Common_Name>
Fenugreek

> <Plant_Family>
Fabaceae

> <Plant_Part>
Seeds

> <Country_of_Use>
Nigeria

> <PubChem_CID>
2773624

> <Canonical_SMILES>
CC(O)C(C)C(N)C(=O)O

> <InChIKey>
OSCCDBFHNMXNME-UHFFFAOYSA-N

> <Molecular_Formula>
C6H13NO3

> <Molecular_Weight>
147.174

> <LogP>
-0.5848

> <HBD>
3

> <HBA>
3

> <TPSA>
83.55

> <Rotatable_Bonds>
3

> <Lipinski_Violations>
0

> <Lipinski_Status>
Pass

> <Reported_Activity>
Insulin secretagogue

> <Assay_Target>
Pancreatic β-cells

> <DOI_Reference>
10.4172/2155-6156.1000546

> <Reference_Year>
2015

> <Compound_Class>
Non-protein Amino Acid

> <Compound_Superclass>
Amino Acid Derivative

> <Data_Source>
Journal of Diabetes & Metabolism

> <Notes>
Stimulates glucose-dependent insulin secretion.

> <Validation_Status>
Verified

> <Fraction_CSP3>
0.8333333333333334

> <Ring_Count>
0

> <Aromatic_Ring_Count>
0

> <Heavy_Atom_Count>
10

> <Molar_Refractivity>
36.45599999999998

> <QED_Score>
0.4981480092477363

> <Veber_Status>
Pass

> <Ghose_Violations>
4

> <Ghose_Status>
Fail

$$$$
Cyanidin
  AfroDiabDB_Exporter

  0  0  0  0  0  0  0  0  0  0999 V2000
M  END
> <Compound_ID>
AFRO-0076

> <Compound_Name>
Cyanidin

> <Plant_Name>
Rhoicissus tridentata

> <Common_Name>
Bushman's grape

> <Plant_Family>
Vitaceae

> <Plant_Part>
Root; tuber; fruit

> <Country_of_Use>
South Africa; Zimbabwe; Mozambique

> <PubChem_CID>
128861

> <Canonical_SMILES>
Oc1cc(O)c2cc(O)c(-c3ccc(O)c(O)c3)[o+]c2c1

> <InChIKey>
VEVZSMAEJFVWIL-UHFFFAOYSA-O

> <Molecular_Formula>
C15H11O6+

> <Molecular_Weight>
287.247

> <LogP>
2.908900000000001

> <HBD>
5

> <HBA>
5

> <TPSA>
112.45

> <Rotatable_Bonds>
1

> <Lipinski_Violations>
0

> <Lipinski_Status>
Pass

> <Reported_Activity>
Regulation of insulin secretion and glucose metabolism

> <Assay_Target>
AKR1B1 (-9.1), HSD11B1 (-9.5), RBP4 (-9.2 kcal/mol)

> <DOI_Reference>
10.3390/molecules24102002

> <Reference_Year>
2019

> <Compound_Class>
Anthocyanidin

> <Compound_Superclass>
Flavonoid

> <Data_Source>
Molecules (MDPI)

> <Notes>
Multi-target compound with favorable ADMET profile. PDF

> <Validation_Status>
Verified

> <Fraction_CSP3>
0.0

> <Ring_Count>
3

> <Aromatic_Ring_Count>
3

> <Heavy_Atom_Count>
21

> <Molar_Refractivity>
74.381

> <QED_Score>
0.3472874946451991

> <Veber_Status>
Pass

> <Ghose_Violations>
0

> <Ghose_Status>
Pass

$$$$
Eburnamonine
  AfroDiabDB_Exporter

  0  0  0  0  0  0  0  0  0  0999 V2000
M  END
> <Compound_ID>
AFRO-0077

> <Compound_Name>
Eburnamonine

> <Plant_Name>
Vinca minor

> <Common_Name>
Lesser periwinkle

> <Plant_Family>
Apocynaceae

> <Plant_Part>
Leaf; aerial parts

> <Country_of_Use>
South Africa, Algeria, Morocco

> <PubChem_CID>
92112

> <Canonical_SMILES>
CCC12CCCN3CCc4c(n(c5ccccc45)C(=O)C1)C32

> <InChIKey>
WYJAPUKIYAZSEM-UHFFFAOYSA-N

> <Molecular_Formula>
C19H22N2O

> <Molecular_Weight>
294.3980000000001

> <LogP>
3.774600000000003

> <HBD>
0

> <HBA>
2

> <TPSA>
25.24

> <Rotatable_Bonds>
1

> <Lipinski_Violations>
0

> <Lipinski_Status>
Pass

> <Reported_Activity>
Regulation of insulin secretion, glucose metabolism, and lipid metabolism

> <Assay_Target>
AKR1B1 (-9.4), HSD11B1 (-9.2), PPARD (-9.3), RBP4 (-9.4 kcal/mol)

> <DOI_Reference>
10.3390/molecules24102002

> <Reference_Year>
2019

> <Compound_Class>
Indole Alkaloid

> <Compound_Superclass>
Alkaloid

> <Data_Source>
Molecules (MDPI)

> <Notes>
Multi-target compound with experimental anti-diabetic evidence. PDF

> <Validation_Status>
Verified

> <Fraction_CSP3>
0.5263157894736842

> <Ring_Count>
5

> <Aromatic_Ring_Count>
2

> <Heavy_Atom_Count>
22

> <Molar_Refractivity>
87.15750000000004

> <QED_Score>
0.7995841048628335

> <Veber_Status>
Pass

> <Ghose_Violations>
0

> <Ghose_Status>
Pass

$$$$
Ergine
  AfroDiabDB_Exporter

  0  0  0  0  0  0  0  0  0  0999 V2000
M  END
> <Compound_ID>
AFRO-0078

> <Compound_Name>
Ergine

> <Plant_Name>
Ipomoea purpurea

> <Common_Name>
Common morning glory

> <Plant_Family>
Convolvulaceae

> <Plant_Part>
Seed; leaf

> <Country_of_Use>
South Africa; Kenya; Ethiopia; Nigeria

> <PubChem_CID>
442072

> <Canonical_SMILES>
CN1CC(C(N)=O)C=C2c3cccc4[nH]cc(c34)CC21

> <InChIKey>
GENAHGKEFJLNJB-UHFFFAOYSA-N

> <Molecular_Formula>
C16H17N3O

> <Molecular_Weight>
267.332

> <LogP>
1.5229

> <HBD>
2

> <HBA>
2

> <TPSA>
62.12

> <Rotatable_Bonds>
1

> <Lipinski_Violations>
0

> <Lipinski_Status>
Pass

> <Reported_Activity>
Regulation of insulin secretion

> <Assay_Target>
HSD11B1 (-9.5), RBP4 (-9.4 kcal/mol)

> <DOI_Reference>
10.3390/molecules24102002

> <Reference_Year>
2019

> <Compound_Class>
Ergot Alkaloid

> <Compound_Superclass>
Alkaloid

> <Data_Source>
Molecules (MDPI)

> <Notes>
Dual-target compound with favorable ADMET properties. PDF

> <Validation_Status>
Verified

> <Fraction_CSP3>
0.3125

> <Ring_Count>
4

> <Aromatic_Ring_Count>
2

> <Heavy_Atom_Count>
20

> <Molar_Refractivity>
79.08210000000003

> <QED_Score>
0.8226614186715399

> <Veber_Status>
Pass

> <Ghose_Violations>
0

> <Ghose_Status>
Pass

$$$$
Eriodictyol
  AfroDiabDB_Exporter

  0  0  0  0  0  0  0  0  0  0999 V2000
M  END
> <Compound_ID>
AFRO-0079

> <Compound_Name>
Eriodictyol

> <Plant_Name>
Cyclopia intermedia

> <Common_Name>
Honeybush

> <Plant_Family>
Fabaceae

> <Plant_Part>
Leaf; stem

> <Country_of_Use>
South Africa

> <PubChem_CID>
440735

> <Canonical_SMILES>
O=C1CC(c2ccc(O)c(O)c2)Oc2cc(O)cc(O)c21

> <InChIKey>
SBHXYTNGIZCORC-UHFFFAOYSA-N

> <Molecular_Formula>
C15H12O6

> <Molecular_Weight>
288.2550000000001

> <LogP>
2.215500000000001

> <HBD>
4

> <HBA>
6

> <TPSA>
107.22

> <Rotatable_Bonds>
1

> <Lipinski_Violations>
0

> <Lipinski_Status>
Pass

> <Reported_Activity>
Regulation of insulin secretion

> <Assay_Target>
HSD11B1 (-9.2), RBP4 (-9.5 kcal/mol)

> <DOI_Reference>
10.3390/molecules24102002

> <Reference_Year>
2019

> <Compound_Class>
Flavanone

> <Compound_Superclass>
Flavonoid

> <Data_Source>
Molecules (MDPI)

> <Notes>
Predicted active compound with favorable ADMET properties. PDF

> <Validation_Status>
Verified

> <Fraction_CSP3>
0.1333333333333333

> <Ring_Count>
3

> <Aromatic_Ring_Count>
2

> <Heavy_Atom_Count>
21

> <Molar_Refractivity>
71.85970000000002

> <QED_Score>
0.5992714485146342

> <Veber_Status>
Pass

> <Ghose_Violations>
0

> <Ghose_Status>
Pass

$$$$
Erythraline
  AfroDiabDB_Exporter

  0  0  0  0  0  0  0  0  0  0999 V2000
M  END
> <Compound_ID>
AFRO-0080

> <Compound_Name>
Erythraline

> <Plant_Name>
Erythrina caffra, Erythrina lysistemon

> <Common_Name>
Coast coral tree, Common coral tree

> <Plant_Family>
Fabaceae

> <Plant_Part>
Seed; bark; leaf

> <Country_of_Use>
South Africa; Eswatini; Mozambique

> <PubChem_CID>
5317205

> <Canonical_SMILES>
COC1C=CC2=CCN3CCc4cc5c(cc4C23C1)OCO5

> <InChIKey>
TVOFUERNMZTYRM-UHFFFAOYSA-N

> <Molecular_Formula>
C18H19NO3

> <Molecular_Weight>
297.354

> <LogP>
2.3836

> <HBD>
0

> <HBA>
4

> <TPSA>
30.93

> <Rotatable_Bonds>
1

> <Lipinski_Violations>
0

> <Lipinski_Status>
Pass

> <Reported_Activity>
Regulation of insulin secretion and glucose metabolism

> <Assay_Target>
AKR1B1 (-9.0), GCK (-9.8), RBP4 (-9.0 kcal/mol)

> <DOI_Reference>
10.3390/molecules24102002

> <Reference_Year>
2019

> <Compound_Class>
Erythrina Alkaloid

> <Compound_Superclass>
Alkaloid

> <Data_Source>
Molecules (MDPI)

> <Notes>
Novel potential multi-targeted anti-diabetic lead candidate. PDF

> <Validation_Status>
Verified

> <Fraction_CSP3>
0.4444444444444444

> <Ring_Count>
5

> <Aromatic_Ring_Count>
1

> <Heavy_Atom_Count>
22

> <Molar_Refractivity>
82.15700000000005

> <QED_Score>
0.7961998699361413

> <Veber_Status>
Pass

> <Ghose_Violations>
0

> <Ghose_Status>
Pass

$$$$
Furanoeudesma-1,3-diene
  AfroDiabDB_Exporter

  0  0  0  0  0  0  0  0  0  0999 V2000
M  END
> <Compound_ID>
AFRO-0081

> <Compound_Name>
Furanoeudesma-1,3-diene

> <Plant_Name>
Commiphora myrrha

> <Common_Name>
Myrrh tree

> <Plant_Family>
Burseraceae

> <Plant_Part>
Resin, bark

> <Country_of_Use>
Somalia; Ethiopia; Kenya

> <PubChem_CID>
13874240

> <Canonical_SMILES>
CC1=CC=CC2(C)Cc3occ(C)c3CC12

> <InChIKey>
AUSAHAHDEVYCOC-UHFFFAOYSA-N

> <Molecular_Formula>
C15H18O

> <Molecular_Weight>
214.308

> <LogP>
3.825220000000003

> <HBD>
0

> <HBA>
1

> <TPSA>
13.14

> <Rotatable_Bonds>
0

> <Lipinski_Violations>
0

> <Lipinski_Status>
Pass

> <Reported_Activity>
Regulation of insulin secretion

> <Assay_Target>
RBP4 (-9.0 kcal/mol)

> <DOI_Reference>
10.3390/molecules24102002

> <Reference_Year>
2019

> <Compound_Class>
Sesquiterpenoid

> <Compound_Superclass>
Terpenoid

> <Data_Source>
Molecules (MDPI)

> <Notes>
Predicted active compound with favorable ADMET properties. PDF

> <Validation_Status>
Verified

> <Fraction_CSP3>
0.4666666666666667

> <Ring_Count>
3

> <Aromatic_Ring_Count>
1

> <Heavy_Atom_Count>
16

> <Molar_Refractivity>
65.34700000000004

> <QED_Score>
0.6394852980156941

> <Veber_Status>
Pass

> <Ghose_Violations>
1

> <Ghose_Status>
Fail

$$$$
Hautriwaic acid
  AfroDiabDB_Exporter

  0  0  0  0  0  0  0  0  0  0999 V2000
M  END
> <Compound_ID>
AFRO-0082

> <Compound_Name>
Hautriwaic acid

> <Plant_Name>
Dodonaea angustifolia

> <Common_Name>
Sand olive

> <Plant_Family>
Sapindaceae

> <Plant_Part>
Leaf; stem bark

> <Country_of_Use>
South Africa; Kenya; Ethiopia; Tanzania

> <PubChem_CID>
12310372

> <Canonical_SMILES>
CC1CCC2(CO)C(C(=O)O)=CCCC2C1(C)CCc1ccoc1

> <InChIKey>
PHKSUFCCGLWIMC-UHFFFAOYSA-N

> <Molecular_Formula>
C20H28O4

> <Molecular_Weight>
332.4400000000001

> <LogP>
4.048100000000003

> <HBD>
2

> <HBA>
3

> <TPSA>
70.67

> <Rotatable_Bonds>
5

> <Lipinski_Violations>
0

> <Lipinski_Status>
Pass

> <Reported_Activity>
Regulation of glucose metabolism

> <Assay_Target>
AKR1B1 (-9.3 kcal/mol)

> <DOI_Reference>
10.3390/molecules24102002

> <Reference_Year>
2019

> <Compound_Class>
Diterpenoid

> <Compound_Superclass>
Terpenoid

> <Data_Source>
Molecules (MDPI)

> <Notes>
Predicted active compound with favorable ADMET properties. PDF

> <Validation_Status>
Verified

> <Fraction_CSP3>
0.65

> <Ring_Count>
3

> <Aromatic_Ring_Count>
1

> <Heavy_Atom_Count>
24

> <Molar_Refractivity>
91.49560000000005

> <QED_Score>
0.8532134087934049

> <Veber_Status>
Pass

> <Ghose_Violations>
0

> <Ghose_Status>
Pass

$$$$
Ibozol
  AfroDiabDB_Exporter

  0  0  0  0  0  0  0  0  0  0999 V2000
M  END
> <Compound_ID>
AFRO-0083

> <Compound_Name>
Ibozol

> <Plant_Name>
Tetradenia riparia

> <Common_Name>
Misty plume bush, Ginger bush

> <Plant_Family>
Lamiaceae

> <Plant_Part>
Leaf, shoot

> <Country_of_Use>
South Africa; Mozambique;  Zimbabwe; Rwanda

> <PubChem_CID>
5458584

> <Canonical_SMILES>
CC(C)C1(O)CCC2=C(C1)C(O)CC1C(C)(C)CCCC21C

> <InChIKey>
NEEOTTWPJHYJMS-UHFFFAOYSA-N

> <Molecular_Formula>
C20H34O2

> <Molecular_Weight>
306.4900000000001

> <LogP>
4.451200000000004

> <HBD>
2

> <HBA>
2

> <TPSA>
40.46

> <Rotatable_Bonds>
1

> <Lipinski_Violations>
0

> <Lipinski_Status>
Pass

> <Reported_Activity>
Regulation of glucose metabolism

> <Assay_Target>
GCK (-9.7 kcal/mol)

> <DOI_Reference>
10.3390/molecules24102002

> <Reference_Year>
2019

> <Compound_Class>
Diterpenoid

> <Compound_Superclass>
Terpenoid

> <Data_Source>
Molecules (MDPI)

> <Notes>
Glucokinase-targeted hit with favorable ADMET properties. PDF

> <Validation_Status>
Verified

> <Fraction_CSP3>
0.9

> <Ring_Count>
3

> <Aromatic_Ring_Count>
0

> <Heavy_Atom_Count>
22

> <Molar_Refractivity>
90.51760000000006

> <QED_Score>
0.7025953967013518

> <Veber_Status>
Pass

> <Ghose_Violations>
0

> <Ghose_Status>
Pass

$$$$
Integerrimine
  AfroDiabDB_Exporter

  0  0  0  0  0  0  0  0  0  0999 V2000
M  END
> <Compound_ID>
AFRO-0084

> <Compound_Name>
Integerrimine

> <Plant_Name>
Lotononis laxa

> <Common_Name>
Yellow lotononis

> <Plant_Family>
Fabaceae

> <Plant_Part>
Aerial parts, leaf

> <Country_of_Use>
South Africa; Namibia; Botswana

> <PubChem_CID>
5281733

> <Canonical_SMILES>
CC=C1CC(C)C(C)(O)C(=O)OCC2=CCN3CCC(OC1=O)C23

> <InChIKey>
HKODIGSRFALUTA-UHFFFAOYSA-N

> <Molecular_Formula>
C18H25NO5

> <Molecular_Weight>
335.4

> <LogP>
1.1928

> <HBD>
1

> <HBA>
6

> <TPSA>
76.07

> <Rotatable_Bonds>
0

> <Lipinski_Violations>
0

> <Lipinski_Status>
Pass

> <Reported_Activity>
Regulation of insulin secretion and lipid metabolism

> <Assay_Target>
HSD11B1 (-9.1), PPARD (-9.3 kcal/mol)

> <DOI_Reference>
10.3390/molecules24102002

> <Reference_Year>
2019

> <Compound_Class>
Pyrrolizidine Alkaloid

> <Compound_Superclass>
Alkaloid

> <Data_Source>
Molecules (MDPI)

> <Notes>
Dual-target compound with favorable ADMET properties. PDF

> <Validation_Status>
Verified

> <Fraction_CSP3>
0.6666666666666666

> <Ring_Count>
3

> <Aromatic_Ring_Count>
0

> <Heavy_Atom_Count>
24

> <Molar_Refractivity>
87.06180000000003

> <QED_Score>
0.4071201682251943

> <Veber_Status>
Pass

> <Ghose_Violations>
0

> <Ghose_Status>
Pass

$$$$
Lapachol
  AfroDiabDB_Exporter

  0  0  0  0  0  0  0  0  0  0999 V2000
M  END
> <Compound_ID>
AFRO-0085

> <Compound_Name>
Lapachol

> <Plant_Name>
Kigelia africana

> <Common_Name>
Sausage tree

> <Plant_Family>
Bignoniaceae

> <Plant_Part>
Bark, fruit, root

> <Country_of_Use>
Nigeria; Ghana; Kenya; South Africa; Tanzania

> <PubChem_CID>
3884

> <Canonical_SMILES>
CC(C)=CCC1=C(O)c2ccccc2C(=O)C1=O

> <InChIKey>
CWPGNVFCJOPXFB-UHFFFAOYSA-N

> <Molecular_Formula>
C15H14O3

> <Molecular_Weight>
242.274

> <LogP>
3.077400000000001

> <HBD>
1

> <HBA>
3

> <TPSA>
54.37

> <Rotatable_Bonds>
2

> <Lipinski_Violations>
0

> <Lipinski_Status>
Pass

> <Reported_Activity>
Regulation of glucose metabolism

> <Assay_Target>
AKR1B1 (-9.2 kcal/mol)

> <DOI_Reference>
10.3390/molecules24102002

> <Reference_Year>
2019

> <Compound_Class>
Naphthoquinone

> <Compound_Superclass>
Quinone

> <Data_Source>
Molecules (MDPI)

> <Notes>
Compound with experimental anti-diabetic evidence. PDF

> <Validation_Status>
Verified

> <Fraction_CSP3>
0.2

> <Ring_Count>
2

> <Aromatic_Ring_Count>
1

> <Heavy_Atom_Count>
18

> <Molar_Refractivity>
69.37630000000003

> <QED_Score>
0.6401329437967432

> <Veber_Status>
Pass

> <Ghose_Violations>
1

> <Ghose_Status>
Fail

$$$$
N-methylflindersine
  AfroDiabDB_Exporter

  0  0  0  0  0  0  0  0  0  0999 V2000
M  END
> <Compound_ID>
AFRO-0086

> <Compound_Name>
N-methylflindersine

> <Plant_Name>
Toddalia asiatica

> <Common_Name>
Orange climber

> <Plant_Family>
Rutaceae

> <Plant_Part>
Root bark, leaf

> <Country_of_Use>
Kenya; Tanzania; Uganda; South Africa; Nigeria

> <PubChem_CID>
72819

> <Canonical_SMILES>
Cn1c(=O)c2c(c3ccccc31)OC(C)(C)C=C2

> <InChIKey>
RJZFGBNKPOVCHQ-UHFFFAOYSA-N

> <Molecular_Formula>
C15H15NO2

> <Molecular_Weight>
241.29

> <LogP>
2.722700000000001

> <HBD>
0

> <HBA>
2

> <TPSA>
31.23

> <Rotatable_Bonds>
0

> <Lipinski_Violations>
0

> <Lipinski_Status>
Pass

> <Reported_Activity>
Regulation of insulin secretion and glucose metabolism

> <Assay_Target>
AKR1B1 (-9.2), RBP4 (-9.5 kcal/mol)

> <DOI_Reference>
10.3390/molecules24102002

> <Reference_Year>
2019

> <Compound_Class>
Quinoline Alkaloid

> <Compound_Superclass>
Alkaloid

> <Data_Source>
Molecules (MDPI)

> <Notes>
Dual-target compound with favorable ADMET properties. PDF

> <Validation_Status>
Verified

> <Fraction_CSP3>
0.2666666666666667

> <Ring_Count>
3

> <Aromatic_Ring_Count>
2

> <Heavy_Atom_Count>
18

> <Molar_Refractivity>
72.93000000000004

> <QED_Score>
0.7097968535007733

> <Veber_Status>
Pass

> <Ghose_Violations>
1

> <Ghose_Status>
Fail

$$$$
Platyphylline
  AfroDiabDB_Exporter

  0  0  0  0  0  0  0  0  0  0999 V2000
M  END
> <Compound_ID>
AFRO-0087

> <Compound_Name>
Platyphylline

> <Plant_Name>
Senecio serratuloides

> <Common_Name>
Two-color ragwort

> <Plant_Family>
Asteraceae

> <Plant_Part>
Leaf, root, flower

> <Country_of_Use>
South Africa; Eswatini

> <PubChem_CID>
5281742

> <Canonical_SMILES>
CC=C1CC(C)C(C)(O)C(=O)OCC2CCN3CCC(OC1=O)C23

> <InChIKey>
BTHCJHQOYFUIMG-UHFFFAOYSA-N

> <Molecular_Formula>
C18H27NO5

> <Molecular_Weight>
337.4160000000001

> <LogP>
1.2727

> <HBD>
1

> <HBA>
6

> <TPSA>
76.07

> <Rotatable_Bonds>
0

> <Lipinski_Violations>
0

> <Lipinski_Status>
Pass

> <Reported_Activity>
Regulation of insulin secretion and lipid metabolism

> <Assay_Target>
HSD11B1 (-9.4), PPARD (-9.3 kcal/mol)

> <DOI_Reference>
10.3390/molecules24102002

> <Reference_Year>
2019

> <Compound_Class>
Pyrrolizidine Alkaloid

> <Compound_Superclass>
Alkaloid

> <Data_Source>
Molecules (MDPI)

> <Notes>
Dual-target compound with favorable ADMET properties. PDF

> <Validation_Status>
Verified

> <Fraction_CSP3>
0.7777777777777778

> <Ring_Count>
3

> <Aromatic_Ring_Count>
0

> <Heavy_Atom_Count>
24

> <Molar_Refractivity>
87.08580000000005

> <QED_Score>
0.529916303909823

> <Veber_Status>
Pass

> <Ghose_Violations>
0

> <Ghose_Status>
Pass

$$$$
Rhinocerotinoic acid
  AfroDiabDB_Exporter

  0  0  0  0  0  0  0  0  0  0999 V2000
M  END
> <Compound_ID>
AFRO-0088

> <Compound_Name>
Rhinocerotinoic acid

> <Plant_Name>
Elytropappus rhinocerotis

> <Common_Name>
Renosterbos

> <Plant_Family>
Asteraceae

> <Plant_Part>
Leaf, twig

> <Country_of_Use>
South Africa

> <PubChem_CID>
75411923

> <Canonical_SMILES>
CC(=CC(=O)O)CCC1=C(C)C(=O)CC2C(C)(C)CCCC12C

> <InChIKey>
MSLXIYYWGHOJNU-UHFFFAOYSA-N

> <Molecular_Formula>
C20H30O3

> <Molecular_Weight>
318.4570000000001

> <LogP>
4.919400000000005

> <HBD>
1

> <HBA>
2

> <TPSA>
54.37

> <Rotatable_Bonds>
4

> <Lipinski_Violations>
0

> <Lipinski_Status>
Pass

> <Reported_Activity>
Regulation of insulin secretion

> <Assay_Target>
HSD11B1 (-9.2), RBP4 (-9.9 kcal/mol)

> <DOI_Reference>
10.3390/molecules24102002

> <Reference_Year>
2019

> <Compound_Class>
Diterpenoid

> <Compound_Superclass>
Terpenoid

> <Data_Source>
Molecules (MDPI)

> <Notes>
Dual-target compound with favorable ADMET properties. PDF

> <Validation_Status>
Verified

> <Fraction_CSP3>
0.7

> <Ring_Count>
2

> <Aromatic_Ring_Count>
0

> <Heavy_Atom_Count>
23

> <Molar_Refractivity>
92.17980000000006

> <QED_Score>
0.748525177142213

> <Veber_Status>
Pass

> <Ghose_Violations>
0

> <Ghose_Status>
Pass

$$$$
Valerenic acid
  AfroDiabDB_Exporter

  0  0  0  0  0  0  0  0  0  0999 V2000
M  END
> <Compound_ID>
AFRO-0089

> <Compound_Name>
Valerenic acid

> <Plant_Name>
Valeriana capensis

> <Common_Name>
Cape valerian

> <Plant_Family>
Valerianaceae

> <Plant_Part>
Root; rhizome

> <Country_of_Use>
South Africa, Lesotho, Malawi

> <PubChem_CID>
6440940

> <Canonical_SMILES>
CC(=CC1CCC(C)C2CCC(C)=C12)C(=O)O

> <InChIKey>
FEBNTWHYQKGEIQ-UHFFFAOYSA-N

> <Molecular_Formula>
C15H22O2

> <Molecular_Weight>
234.339

> <LogP>
3.789900000000002

> <HBD>
1

> <HBA>
1

> <TPSA>
37.3

> <Rotatable_Bonds>
2

> <Lipinski_Violations>
0

> <Lipinski_Status>
Pass

> <Reported_Activity>
Regulation of glucose metabolism

> <Assay_Target>
AKR1B1 (-9.0 kcal/mol)

> <DOI_Reference>
10.3390/molecules24102002

> <Reference_Year>
2019

> <Compound_Class>
Sesquiterpenoid

> <Compound_Superclass>
Terpenoid

> <Data_Source>
Molecules (MDPI)

> <Notes>
Predicted active compound with favorable ADMET properties. PDF

> <Validation_Status>
Verified

> <Fraction_CSP3>
0.6666666666666666

> <Ring_Count>
2

> <Aromatic_Ring_Count>
0

> <Heavy_Atom_Count>
17

> <Molar_Refractivity>
68.70480000000005

> <QED_Score>
0.5827391005024772

> <Veber_Status>
Pass

> <Ghose_Violations>
1

> <Ghose_Status>
Fail

$$$$
Voaphylline
  AfroDiabDB_Exporter

  0  0  0  0  0  0  0  0  0  0999 V2000
M  END
> <Compound_ID>
AFRO-0090

> <Compound_Name>
Voaphylline

> <Plant_Name>
Voacanga africana

> <Common_Name>
Voacanga tree

> <Plant_Family>
Apocynaceae

> <Plant_Part>
Bark, root, leaf

> <Country_of_Use>
Ghana; Nigeria; Ivory Coast; Cameroon

> <PubChem_CID>
10469868

> <Canonical_SMILES>
CCC12CCc3[nH]c4ccccc4c3CCN(CC3OC31)C2

> <InChIKey>
OGDFTQDRHAGLTB-UHFFFAOYSA-N

> <Molecular_Formula>
C19H24N2O

> <Molecular_Weight>
296.414

> <LogP>
3.136000000000002

> <HBD>
1

> <HBA>
2

> <TPSA>
31.56

> <Rotatable_Bonds>
1

> <Lipinski_Violations>
0

> <Lipinski_Status>
Pass

> <Reported_Activity>
Regulation of insulin secretion, glucose metabolism, and lipid metabolism

> <Assay_Target>
AMY2A (-9.0), DPP4 (-9.6), GCK (-9.1), HSD11B1 (-9.3), PPARD (-9.1), PPARG (-9.8), RBP4 (-9.2 kcal/mol)

> <DOI_Reference>
10.3390/molecules24102002

> <Reference_Year>
2019

> <Compound_Class>
Indole Alkaloid

> <Compound_Superclass>
Alkaloid

> <Data_Source>
Molecules (MDPI)

> <Notes>
Novel multi-targeted lead active across 7 diabetes targets. PDF

> <Validation_Status>
Verified

> <Fraction_CSP3>
0.5789473684210527

> <Ring_Count>
5

> <Aromatic_Ring_Count>
2

> <Heavy_Atom_Count>
22

> <Molar_Refractivity>
88.14870000000005

> <QED_Score>
0.8198527471921156

> <Veber_Status>
Pass

> <Ghose_Violations>
0

> <Ghose_Status>
Pass

$$$$
Withasomnine
  AfroDiabDB_Exporter

  0  0  0  0  0  0  0  0  0  0999 V2000
M  END
> <Compound_ID>
AFRO-0091

> <Compound_Name>
Withasomnine

> <Plant_Name>
Voacanga africana

> <Common_Name>
Voacanga tree

> <Plant_Family>
Apocynaceae

> <Plant_Part>
Root; bark; leaf

> <Country_of_Use>
Ghana; Nigeria; Ivory Coast; Cameroon

> <PubChem_CID>
442877

> <Canonical_SMILES>
c1ccc(-c2cnn3c2CCC3)cc1

> <InChIKey>
FOJCJLSJZFQCID-UHFFFAOYSA-N

> <Molecular_Formula>
C12H12N2

> <Molecular_Weight>
184.242

> <LogP>
2.496300000000001

> <HBD>
0

> <HBA>
1

> <TPSA>
17.82

> <Rotatable_Bonds>
1

> <Lipinski_Violations>
0

> <Lipinski_Status>
Pass

> <Reported_Activity>
Regulation of insulin secretion

> <Assay_Target>
FFAR1 (-9.1 kcal/mol)

> <DOI_Reference>
10.3390/molecules24102002

> <Reference_Year>
2019

> <Compound_Class>
Pyrazole Alkaloid

> <Compound_Superclass>
Alkaloid

> <Data_Source>
Molecules (MDPI)

> <Notes>
Potential FFAR1 agonist with favorable ADMET properties. PDF

> <Validation_Status>
Verified

> <Fraction_CSP3>
0.25

> <Ring_Count>
3

> <Aromatic_Ring_Count>
2

> <Heavy_Atom_Count>
14

> <Molar_Refractivity>
55.98400000000003

> <QED_Score>
0.6654513836768017

> <Veber_Status>
Pass

> <Ghose_Violations>
1

> <Ghose_Status>
Fail

$$$$
Aspalathin
  AfroDiabDB_Exporter

  0  0  0  0  0  0  0  0  0  0999 V2000
M  END
> <Compound_ID>
AFRO-0092

> <Compound_Name>
Aspalathin

> <Plant_Name>
Aspalathus linearis

> <Common_Name>
Rooibos

> <Plant_Family>
Fabaceae

> <Plant_Part>
Leaf

> <Country_of_Use>
South Africa

> <PubChem_CID>
11282394

> <Canonical_SMILES>
O=C(CCc1ccc(O)c(O)c1)c1c(O)cc(O)c(C2OC(CO)C(O)C(O)C2O)c1O

> <InChIKey>
VCPUQYKWJRESOC-UHFFFAOYSA-N

> <Molecular_Formula>
C21H24O11

> <Molecular_Weight>
452.4120000000001

> <LogP>
-0.4550000000000002

> <HBD>
9

> <HBA>
11

> <TPSA>
208.37

> <Rotatable_Bonds>
6

> <Lipinski_Violations>
2

> <Lipinski_Status>
Fail

> <Reported_Activity>
Reported antidiabetic activity

> <Assay_Target>
Multiple diabetes targets

> <DOI_Reference>
10.3390/molecules24102002

> <Reference_Year>
2019

> <Compound_Class>
Flavonoid

> <Compound_Superclass>
Flavonoid

> <Data_Source>
Literature + DIA-DB study

> <Notes>
Identified as bioactive antidiabetic constituent

> <Validation_Status>
Verified

> <Fraction_CSP3>
0.3809523809523809

> <Ring_Count>
3

> <Aromatic_Ring_Count>
2

> <Heavy_Atom_Count>
32

> <Molar_Refractivity>
106.5797

> <QED_Score>
0.2023191668240041

> <Veber_Status>
Fail

> <Ghose_Violations>
1

> <Ghose_Status>
Fail

$$$$
Isoorientin
  AfroDiabDB_Exporter

  0  0  0  0  0  0  0  0  0  0999 V2000
M  END
> <Compound_ID>
AFRO-0093

> <Compound_Name>
Isoorientin

> <Plant_Name>
Aspalathus linearis

> <Common_Name>
Rooibos

> <Plant_Family>
Fabaceae

> <Plant_Part>
Leaf

> <Country_of_Use>
South Africa

> <PubChem_CID>
114776

> <Canonical_SMILES>
O=c1cc(-c2ccc(O)c(O)c2)oc2cc(O)c(C3OC(CO)C(O)C(O)C3O)c(O)c12

> <InChIKey>
ODBRNZZJSYPIDI-UHFFFAOYSA-N

> <Molecular_Formula>
C21H20O11

> <Molecular_Weight>
448.3800000000001

> <LogP>
-0.2027000000000003

> <HBD>
8

> <HBA>
11

> <TPSA>
201.28

> <Rotatable_Bonds>
3

> <Lipinski_Violations>
2

> <Lipinski_Status>
Fail

> <Reported_Activity>
Reported antidiabetic activity

> <Assay_Target>
Multiple diabetes targets

> <DOI_Reference>
10.3390/molecules24102002

> <Reference_Year>
2019

> <Compound_Class>
Flavonoid

> <Compound_Superclass>
Flavonoid

> <Data_Source>
Literature + DIA-DB study

> <Notes>
Reported in Rooibos antidiabetic studies

> <Validation_Status>
Verified

> <Fraction_CSP3>
0.2857142857142857

> <Ring_Count>
4

> <Aromatic_Ring_Count>
3

> <Heavy_Atom_Count>
32

> <Molar_Refractivity>
107.2994

> <QED_Score>
0.2465547063119637

> <Veber_Status>
Fail

> <Ghose_Violations>
0

> <Ghose_Status>
Pass

$$$$
Orientin
  AfroDiabDB_Exporter

  0  0  0  0  0  0  0  0  0  0999 V2000
M  END
> <Compound_ID>
AFRO-0094

> <Compound_Name>
Orientin

> <Plant_Name>
Aspalathus linearis

> <Common_Name>
Rooibos

> <Plant_Family>
Fabaceae

> <Plant_Part>
Leaf

> <Country_of_Use>
South Africa

> <PubChem_CID>
5281675

> <Canonical_SMILES>
O=c1cc(-c2ccc(O)c(O)c2)oc2c(C3OC(CO)C(O)C(O)C3O)c(O)cc(O)c12

> <InChIKey>
PLAPMLGJVGLZOV-UHFFFAOYSA-N

> <Molecular_Formula>
C21H20O11

> <Molecular_Weight>
448.3800000000001

> <LogP>
-0.2027000000000003

> <HBD>
8

> <HBA>
11

> <TPSA>
201.28

> <Rotatable_Bonds>
3

> <Lipinski_Violations>
2

> <Lipinski_Status>
Fail

> <Reported_Activity>
Reported antidiabetic activity

> <Assay_Target>
Multiple diabetes targets

> <DOI_Reference>
10.3390/molecules24102002

> <Reference_Year>
2019

> <Compound_Class>
Flavonoid

> <Compound_Superclass>
Flavonoid

> <Data_Source>
Literature + DIA-DB study

> <Notes>
Identified as active constituent

> <Validation_Status>
Verified

> <Fraction_CSP3>
0.2857142857142857

> <Ring_Count>
4

> <Aromatic_Ring_Count>
3

> <Heavy_Atom_Count>
32

> <Molar_Refractivity>
107.2994

> <QED_Score>
0.2465547063119637

> <Veber_Status>
Fail

> <Ghose_Violations>
0

> <Ghose_Status>
Pass

$$$$
Cryptolepine
  AfroDiabDB_Exporter

  0  0  0  0  0  0  0  0  0  0999 V2000
M  END
> <Compound_ID>
AFRO-0095

> <Compound_Name>
Cryptolepine

> <Plant_Name>
Cryptolepis sanguinolenta

> <Common_Name>
Ghana quinine

> <Plant_Family>
Apocynaceae

> <Plant_Part>
Root

> <Country_of_Use>
Ghana

> <PubChem_CID>
82143

> <Canonical_SMILES>
Cn1c2c3ccccc3nc-2cc2ccccc21

> <InChIKey>
KURWKDDWCJELSV-UHFFFAOYSA-N

> <Molecular_Formula>
C16H12N2

> <Molecular_Weight>
232.286

> <LogP>
3.831300000000002

> <HBD>
0

> <HBA>
1

> <TPSA>
17.82

> <Rotatable_Bonds>
0

> <Lipinski_Violations>
0

> <Lipinski_Status>
Pass

> <Reported_Activity>
Reported antidiabetic activity

> <Assay_Target>
Multiple diabetes targets

> <DOI_Reference>
10.3390/molecules24102002

> <Reference_Year>
2019

> <Compound_Class>
Indoloquinoline Alkaloid

> <Compound_Superclass>
Alkaloid

> <Data_Source>
Literature + DIA-DB study

> <Notes>
Identified as active constituent

> <Validation_Status>
Verified

> <Fraction_CSP3>
0.0625

> <Ring_Count>
4

> <Aromatic_Ring_Count>
2

> <Heavy_Atom_Count>
18

> <Molar_Refractivity>
74.84200000000004

> <QED_Score>
0.4502621477161849

> <Veber_Status>
Pass

> <Ghose_Violations>
1

> <Ghose_Status>
Fail

$$$$
Chlorogenic Acid
  AfroDiabDB_Exporter

  0  0  0  0  0  0  0  0  0  0999 V2000
M  END
> <Compound_ID>
AFRO-0096

> <Compound_Name>
Chlorogenic Acid

> <Plant_Name>
Vernonia amygdalina

> <Common_Name>
Bitter Leaf

> <Plant_Family>
Asteraceae

> <Plant_Part>
Leaf

> <Country_of_Use>
Nigeria

> <PubChem_CID>
1794427

> <Canonical_SMILES>
O=C(C=Cc1ccc(O)c(O)c1)OC1CC(O)(C(=O)O)CC(O)C1O

> <InChIKey>
CWVRJTMFETXNAD-UHFFFAOYSA-N

> <Molecular_Formula>
C16H18O9

> <Molecular_Weight>
354.311

> <LogP>
-0.6459000000000001

> <HBD>
6

> <HBA>
8

> <TPSA>
164.75

> <Rotatable_Bonds>
4

> <Lipinski_Violations>
1

> <Lipinski_Status>
Pass

> <Reported_Activity>
Reported antidiabetic activity

> <Assay_Target>
Multiple diabetes targets

> <DOI_Reference>
10.3390/molecules24102002

> <Reference_Year>
2019

> <Compound_Class>
Phenolic Acid

> <Compound_Superclass>
Phenolic Compound

> <Data_Source>
Literature + DIA-DB study

> <Notes>
Active constituent of V. amygdalina

> <Validation_Status>
Verified

> <Fraction_CSP3>
0.375

> <Ring_Count>
2

> <Aromatic_Ring_Count>
1

> <Heavy_Atom_Count>
25

> <Molar_Refractivity>
82.51880000000001

> <QED_Score>
0.2340852797608433

> <Veber_Status>
Fail

> <Ghose_Violations>
1

> <Ghose_Status>
Fail

$$$$
2,4-di-tert-butylphenol
  AfroDiabDB_Exporter

  0  0  0  0  0  0  0  0  0  0999 V2000
M  END
> <Compound_ID>
AFRO-0098

> <Compound_Name>
2,4-di-tert-butylphenol

> <Plant_Name>
Momordica balsamina Linn

> <Common_Name>
Momordica balsamina Linn

> <Plant_Family>
Cucurbitaceae

> <Plant_Part>
Leaf

> <Country_of_Use>
South Africa

> <PubChem_CID>
7311

> <Canonical_SMILES>
CC(C)(C)c1ccc(O)c(C(C)(C)C)c1

> <InChIKey>
ICKWICRCANNIBI-UHFFFAOYSA-N

> <Molecular_Formula>
C14H22O

> <Molecular_Weight>
206.329

> <LogP>
3.987200000000003

> <HBD>
1

> <HBA>
1

> <TPSA>
20.23

> <Rotatable_Bonds>
0

> <Lipinski_Violations>
0

> <Lipinski_Status>
Pass

> <Reported_Activity>
Antidiabetic / Enzyme inhibition / Anti-inflammatory

> <Assay_Target>
α-Amylase

> <DOI_Reference>
10.3390/cimb48050503

> <Reference_Year>
2026

> <Compound_Class>
Phenol derivative

> <Compound_Superclass>
Phenolic Compound

> <Data_Source>
GC-MS

> <Notes>
Identified in DCM leaf extract

> <Validation_Status>
Verified

> <Fraction_CSP3>
0.5714285714285714

> <Ring_Count>
1

> <Aromatic_Ring_Count>
1

> <Heavy_Atom_Count>
15

> <Molar_Refractivity>
65.50680000000006

> <QED_Score>
0.6802500634680617

> <Veber_Status>
Pass

> <Ghose_Violations>
1

> <Ghose_Status>
Fail

$$$$
Tetratriacontane
  AfroDiabDB_Exporter

  0  0  0  0  0  0  0  0  0  0999 V2000
M  END
> <Compound_ID>
AFRO-0099

> <Compound_Name>
Tetratriacontane

> <Plant_Name>
Momordica balsamina Linn

> <Common_Name>
Momordica balsamina Linn

> <Plant_Family>
Cucurbitaceae

> <Plant_Part>
Leaf

> <Country_of_Use>
South Africa

> <PubChem_CID>
26519

> <Canonical_SMILES>
CCCCCCCCCCCCCCCCCCCCCCCCCCCCCCCCCC

> <InChIKey>
GWVDBZWVFGFBCN-UHFFFAOYSA-N

> <Molecular_Formula>
C34H70

> <Molecular_Weight>
478.9340000000005

> <LogP>
13.50939999999997

> <HBD>
0

> <HBA>
0

> <TPSA>
0.0

> <Rotatable_Bonds>
31

> <Lipinski_Violations>
1

> <Lipinski_Status>
Pass

> <Reported_Activity>
Antidiabetic / Enzyme inhibition

> <Assay_Target>
α-Amylase, α-Glucosidase

> <DOI_Reference>
10.3390/cimb48050503

> <Reference_Year>
2026

> <Compound_Class>
Saturated alkane / Hydrocarbon

> <Compound_Superclass>
Lipid

> <Data_Source>
GC-MS

> <Notes>
Identified in Hexane leaf extract

> <Validation_Status>
Verified

> <Fraction_CSP3>
1.0

> <Ring_Count>
0

> <Aromatic_Ring_Count>
0

> <Heavy_Atom_Count>
34

> <Molar_Refractivity>
159.0919999999997

> <QED_Score>
0.08685376577555898

> <Veber_Status>
Fail

> <Ghose_Violations>
2

> <Ghose_Status>
Fail

$$$$
Propylene glycol
  AfroDiabDB_Exporter

  0  0  0  0  0  0  0  0  0  0999 V2000
M  END
> <Compound_ID>
AFRO-0100

> <Compound_Name>
Propylene glycol

> <Plant_Name>
Momordica balsamina Linn

> <Common_Name>
Momordica balsamina Linn

> <Plant_Family>
Cucurbitaceae

> <Plant_Part>
Leaf

> <Country_of_Use>
South Africa

> <PubChem_CID>
1030

> <Canonical_SMILES>
CC(O)CO

> <InChIKey>
DNIAPMSPPWPWGF-UHFFFAOYSA-N

> <Molecular_Formula>
C3H8O2

> <Molecular_Weight>
76.095

> <LogP>
-0.6405000000000001

> <HBD>
2

> <HBA>
2

> <TPSA>
40.46

> <Rotatable_Bonds>
1

> <Lipinski_Violations>
0

> <Lipinski_Status>
Pass

> <Reported_Activity>
Antidiabetic / Enzyme inhibition

> <Assay_Target>
α-Glucosidase

> <DOI_Reference>
10.3390/cimb48050503

> <Reference_Year>
2026

> <Compound_Class>
Diol / Alcohol

> <Compound_Superclass>
Lipid

> <Data_Source>
GC-MS

> <Notes>
Identified in Ethyl acetate leaf extract

> <Validation_Status>
Verified

> <Fraction_CSP3>
1.0

> <Ring_Count>
0

> <Aromatic_Ring_Count>
0

> <Heavy_Atom_Count>
5

> <Molar_Refractivity>
18.7666

> <QED_Score>
0.4358349966110498

> <Veber_Status>
Pass

> <Ghose_Violations>
4

> <Ghose_Status>
Fail

$$$$
Oleic acid
  AfroDiabDB_Exporter

  0  0  0  0  0  0  0  0  0  0999 V2000
M  END
> <Compound_ID>
AFRO-0101

> <Compound_Name>
Oleic acid

> <Plant_Name>
Momordica balsamina Linn

> <Common_Name>
Momordica balsamina Linn

> <Plant_Family>
Cucurbitaceae

> <Plant_Part>
Leaf

> <Country_of_Use>
South Africa

> <PubChem_CID>
445639

> <Canonical_SMILES>
CCCCCCCCC=CCCCCCCCC(=O)O

> <InChIKey>
ZQPPMHVWECSIRJ-UHFFFAOYSA-N

> <Molecular_Formula>
C18H34O2

> <Molecular_Weight>
282.4679999999999

> <LogP>
6.108500000000006

> <HBD>
1

> <HBA>
1

> <TPSA>
37.3

> <Rotatable_Bonds>
15

> <Lipinski_Violations>
1

> <Lipinski_Status>
Pass

> <Reported_Activity>
Antidiabetic / Glucose uptake enhancement

> <Assay_Target>
IRS1 / PI3K signaling pathway

> <DOI_Reference>
10.3390/cimb48050503

> <Reference_Year>
2026

> <Compound_Class>
Monounsaturated fatty acid

> <Compound_Superclass>
Lipid

> <Data_Source>
GC-MS

> <Notes>
Identified in Ethyl acetate leaf extract

> <Validation_Status>
Verified

> <Fraction_CSP3>
0.8333333333333334

> <Ring_Count>
0

> <Aromatic_Ring_Count>
0

> <Heavy_Atom_Count>
20

> <Molar_Refractivity>
87.08780000000007

> <QED_Score>
0.2905169417988814

> <Veber_Status>
Fail

> <Ghose_Violations>
1

> <Ghose_Status>
Fail

$$$$
Phytol
  AfroDiabDB_Exporter

  0  0  0  0  0  0  0  0  0  0999 V2000
M  END
> <Compound_ID>
AFRO-0102

> <Compound_Name>
Phytol

> <Plant_Name>
Momordica balsamina Linn

> <Common_Name>
Momordica balsamina Linn

> <Plant_Family>
Cucurbitaceae

> <Plant_Part>
Leaf

> <Country_of_Use>
South Africa

> <PubChem_CID>
5280435

> <Canonical_SMILES>
CC(=CCO)CCCC(C)CCCC(C)CCCC(C)C

> <InChIKey>
BOTWFXYSPFMFNR-UHFFFAOYSA-N

> <Molecular_Formula>
C20H40O

> <Molecular_Weight>
296.539

> <LogP>
6.364100000000007

> <HBD>
1

> <HBA>
1

> <TPSA>
20.23

> <Rotatable_Bonds>
13

> <Lipinski_Violations>
1

> <Lipinski_Status>
Pass

> <Reported_Activity>
Antidiabetic / Insulin sensitivity

> <Assay_Target>
PPAR-γ

> <DOI_Reference>
10.3390/cimb48050503

> <Reference_Year>
2026

> <Compound_Class>
Diterpene alcohol

> <Compound_Superclass>
Terpenoid

> <Data_Source>
GC-MS

> <Notes>
Identified in Ethyl acetate leaf extract

> <Validation_Status>
Verified

> <Fraction_CSP3>
0.9

> <Ring_Count>
0

> <Aromatic_Ring_Count>
0

> <Heavy_Atom_Count>
21

> <Molar_Refractivity>
95.56180000000009

> <QED_Score>
0.3917560713370458

> <Veber_Status>
Fail

> <Ghose_Violations>
1

> <Ghose_Status>
Fail

$$$$
Octadecanoic acid
  AfroDiabDB_Exporter

  0  0  0  0  0  0  0  0  0  0999 V2000
M  END
> <Compound_ID>
AFRO-0103

> <Compound_Name>
Octadecanoic acid

> <Plant_Name>
Momordica balsamina Linn

> <Common_Name>
Momordica balsamina Linn

> <Plant_Family>
Cucurbitaceae

> <Plant_Part>
Leaf

> <Country_of_Use>
South Africa

> <PubChem_CID>
5281

> <Canonical_SMILES>
CCCCCCCCCCCCCCCCCC(=O)O

> <InChIKey>
QIQXTHQIDYTFRH-UHFFFAOYSA-N

> <Molecular_Formula>
C18H36O2

> <Molecular_Weight>
284.4839999999999

> <LogP>
6.332500000000007

> <HBD>
1

> <HBA>
1

> <TPSA>
37.3

> <Rotatable_Bonds>
16

> <Lipinski_Violations>
1

> <Lipinski_Status>
Pass

> <Reported_Activity>
Antidiabetic / Insulin signaling enhancement

> <Assay_Target>
PTP1B

> <DOI_Reference>
10.3390/cimb48050503

> <Reference_Year>
2026

> <Compound_Class>
Saturated fatty acid

> <Compound_Superclass>
Lipid

> <Data_Source>
GC-MS

> <Notes>
Identified in Ethyl acetate leaf extract

> <Validation_Status>
Verified

> <Fraction_CSP3>
0.9444444444444444

> <Ring_Count>
0

> <Aromatic_Ring_Count>
0

> <Heavy_Atom_Count>
20

> <Molar_Refractivity>
87.18180000000008

> <QED_Score>
0.3360419785922725

> <Veber_Status>
Fail

> <Ghose_Violations>
1

> <Ghose_Status>
Fail

$$$$
n-Hexadecenoic acid
  AfroDiabDB_Exporter

  0  0  0  0  0  0  0  0  0  0999 V2000
M  END
> <Compound_ID>
AFRO-0104

> <Compound_Name>
n-Hexadecenoic acid

> <Plant_Name>
Momordica balsamina Linn

> <Common_Name>
Momordica balsamina Linn

> <Plant_Family>
Cucurbitaceae

> <Plant_Part>
Leaf

> <Country_of_Use>
South Africa

> <PubChem_CID>
985

> <Canonical_SMILES>
CCCCCCCCCCCCCCCC(=O)O

> <InChIKey>
IPCSVZSSVZVIGE-UHFFFAOYSA-N

> <Molecular_Formula>
C16H32O2

> <Molecular_Weight>
256.4299999999999

> <LogP>
5.552300000000005

> <HBD>
1

> <HBA>
1

> <TPSA>
37.3

> <Rotatable_Bonds>
14

> <Lipinski_Violations>
1

> <Lipinski_Status>
Pass

> <Reported_Activity>
Antidiabetic / Enzyme inhibition

> <Assay_Target>
α-Amylase, α-Glucosidase

> <DOI_Reference>
10.3390/cimb48050503

> <Reference_Year>
2026

> <Compound_Class>
Saturated fatty acid

> <Compound_Superclass>
Lipid

> <Data_Source>
GC-MS

> <Notes>
Identified in DCM and Ethyl acetate leaf extracts

> <Validation_Status>
Verified

> <Fraction_CSP3>
0.9375

> <Ring_Count>
0

> <Aromatic_Ring_Count>
0

> <Heavy_Atom_Count>
18

> <Molar_Refractivity>
77.94780000000007

> <QED_Score>
0.4134897831112085

> <Veber_Status>
Fail

> <Ghose_Violations>
1

> <Ghose_Status>
Fail

$$$$
Methyl gallate
  AfroDiabDB_Exporter

  0  0  0  0  0  0  0  0  0  0999 V2000
M  END
> <Compound_ID>
AFRO-0105

> <Compound_Name>
Methyl gallate

> <Plant_Name>
Acacia nilotica

> <Common_Name>
Babul / Gum arabic tree

> <Plant_Family>
Mimosoideae

> <Plant_Part>
Stem bark

> <Country_of_Use>
Kenya

> <PubChem_CID>
7428

> <Canonical_SMILES>
COC(=O)c1cc(O)c(O)c(O)c1

> <InChIKey>
FBSFWRHWHYMIOG-UHFFFAOYSA-N

> <Molecular_Formula>
C8H8O5

> <Molecular_Weight>
184.147

> <LogP>
0.5899999999999996

> <HBD>
3

> <HBA>
5

> <TPSA>
86.99000000000001

> <Rotatable_Bonds>
1

> <Lipinski_Violations>
0

> <Lipinski_Status>
Pass

> <Reported_Activity>
Antidiabetic

> <Assay_Target>
Metabolic targets

> <DOI_Reference>
10.3390/molecules28207202

> <Reference_Year>
2023

> <Compound_Class>
Phenolic acid

> <Compound_Superclass>
Phenolic Compound

> <Data_Source>
Isolation (Extraction)

> <Notes>
Isolated from stem bark.

> <Validation_Status>
Verified

> <Fraction_CSP3>
0.125

> <Ring_Count>
1

> <Aromatic_Ring_Count>
1

> <Heavy_Atom_Count>
13

> <Molar_Refractivity>
42.77590000000002

> <QED_Score>
0.4388711477830505

> <Veber_Status>
Pass

> <Ghose_Violations>
1

> <Ghose_Status>
Fail

$$$$
Gallocatechin 5-O-gallate
  AfroDiabDB_Exporter

  0  0  0  0  0  0  0  0  0  0999 V2000
M  END
> <Compound_ID>
AFRO-0106

> <Compound_Name>
Gallocatechin 5-O-gallate

> <Plant_Name>
Acacia nilotica

> <Common_Name>
Babul / Gum arabic tree

> <Plant_Family>
Mimosoideae

> <Plant_Part>
Stem bark

> <Country_of_Use>
Kenya

> <PubChem_CID>
76385903

> <Canonical_SMILES>
O=C(Oc1cc(O)cc2c1CC(O)C(c1cc(O)c(O)c(O)c1)O2)c1cc(O)c(O)c(O)c1

> <InChIKey>
PRVLZZLYGXHYCQ-UHFFFAOYSA-N

> <Molecular_Formula>
C22H18O11

> <Molecular_Weight>
458.3750000000002

> <LogP>
1.8821

> <HBD>
8

> <HBA>
11

> <TPSA>
197.37

> <Rotatable_Bonds>
3

> <Lipinski_Violations>
2

> <Lipinski_Status>
Fail

> <Reported_Activity>
Antidiabetic

> <Assay_Target>
Cellular metabolic pathways

> <DOI_Reference>
10.3390/molecules28207202

> <Reference_Year>
2023

> <Compound_Class>
Flavanol gallate

> <Compound_Superclass>
Flavonoid

> <Data_Source>
Isolation (Extraction)

> <Notes>
Isolated from stem bark.

> <Validation_Status>
Verified

> <Fraction_CSP3>
0.1363636363636364

> <Ring_Count>
4

> <Aromatic_Ring_Count>
3

> <Heavy_Atom_Count>
33

> <Molar_Refractivity>
109.0179

> <QED_Score>
0.1619637802564463

> <Veber_Status>
Fail

> <Ghose_Violations>
0

> <Ghose_Status>
Pass

$$$$
Catechin 5-O-gallate
  AfroDiabDB_Exporter

  0  0  0  0  0  0  0  0  0  0999 V2000
M  END
> <Compound_ID>
AFRO-0107

> <Compound_Name>
Catechin 5-O-gallate

> <Plant_Name>
Acacia nilotica

> <Common_Name>
Babul / Gum arabic tree

> <Plant_Family>
Mimosoideae

> <Plant_Part>
Stem bark

> <Country_of_Use>
Kenya

> <PubChem_CID>
15689618

> <Canonical_SMILES>
O=C(Oc1cc(O)cc2c1CC(O)C(c1ccc(O)c(O)c1)O2)c1cc(O)c(O)c(O)c1

> <InChIKey>
LVJJFMLUMNSUFN-UHFFFAOYSA-N

> <Molecular_Formula>
C22H18O10

> <Molecular_Weight>
442.3760000000001

> <LogP>
2.1765

> <HBD>
7

> <HBA>
10

> <TPSA>
177.14

> <Rotatable_Bonds>
3

> <Lipinski_Violations>
1

> <Lipinski_Status>
Pass

> <Reported_Activity>
Antidiabetic

> <Assay_Target>
Cellular metabolic pathways

> <DOI_Reference>
10.3390/molecules28207202

> <Reference_Year>
2023

> <Compound_Class>
Flavanol gallate

> <Compound_Superclass>
Flavonoid

> <Data_Source>
Isolation (Extraction)

> <Notes>
Isolated from stem bark.

> <Validation_Status>
Verified

> <Fraction_CSP3>
0.1363636363636364

> <Ring_Count>
4

> <Aromatic_Ring_Count>
3

> <Heavy_Atom_Count>
32

> <Molar_Refractivity>
107.3531

> <QED_Score>
0.1806435242688321

> <Veber_Status>
Fail

> <Ghose_Violations>
0

> <Ghose_Status>
Pass

$$$$
Digallic acid
  AfroDiabDB_Exporter

  0  0  0  0  0  0  0  0  0  0999 V2000
M  END
> <Compound_ID>
AFRO-0109

> <Compound_Name>
Digallic acid

> <Plant_Name>
Acacia nilotica

> <Common_Name>
Babul / Gum arabic tree

> <Plant_Family>
Mimosoideae

> <Plant_Part>
Stem bark

> <Country_of_Use>
Kenya

> <PubChem_CID>
341

> <Canonical_SMILES>
O=C(O)c1cc(O)c(O)c(OC(=O)c2cc(O)c(O)c(O)c2)c1

> <InChIKey>
COVFEVWNJUOYRL-UHFFFAOYSA-N

> <Molecular_Formula>
C14H10O9

> <Molecular_Weight>
322.225

> <LogP>
1.131999999999999

> <HBD>
6

> <HBA>
8

> <TPSA>
164.75

> <Rotatable_Bonds>
3

> <Lipinski_Violations>
1

> <Lipinski_Status>
Pass

> <Reported_Activity>
Antidiabetic

> <Assay_Target>
Metabolic pathways

> <DOI_Reference>
10.3390/molecules28207202

> <Reference_Year>
2023

> <Compound_Class>
Phenolic acid derivative

> <Compound_Superclass>
Phenolic Compound

> <Data_Source>
Isolation (Extraction)

> <Notes>
Isolated from stem bark.

> <Validation_Status>
Verified

> <Fraction_CSP3>
0.0

> <Ring_Count>
2

> <Aromatic_Ring_Count>
2

> <Heavy_Atom_Count>
23

> <Molar_Refractivity>
73.1258

> <QED_Score>
0.2757811567339853

> <Veber_Status>
Fail

> <Ghose_Violations>
0

> <Ghose_Status>
Pass

$$$$
Ellagic acid
  AfroDiabDB_Exporter

  0  0  0  0  0  0  0  0  0  0999 V2000
M  END
> <Compound_ID>
AFRO-0110

> <Compound_Name>
Ellagic acid

> <Plant_Name>
Acacia nilotica

> <Common_Name>
Babul / Gum arabic tree

> <Plant_Family>
Mimosoideae

> <Plant_Part>
Stem bark

> <Country_of_Use>
Kenya

> <PubChem_CID>
5281855

> <Canonical_SMILES>
O=c1oc2c(O)c(O)cc3c(=O)oc4c(O)c(O)cc1c4c23

> <InChIKey>
AFSDNFLWKVMVRB-UHFFFAOYSA-N

> <Molecular_Formula>
C14H6O8

> <Molecular_Weight>
302.194

> <LogP>
1.3128

> <HBD>
4

> <HBA>
8

> <TPSA>
141.34

> <Rotatable_Bonds>
0

> <Lipinski_Violations>
0

> <Lipinski_Status>
Pass

> <Reported_Activity>
Antidiabetic

> <Assay_Target>
Metabolic targets

> <DOI_Reference>
10.3390/molecules28207202

> <Reference_Year>
2023

> <Compound_Class>
Polyphenol

> <Compound_Superclass>
Phenolic Compound

> <Data_Source>
Isolation (Extraction)

> <Notes>
Isolated from stem bark.

> <Validation_Status>
Verified

> <Fraction_CSP3>
0.0

> <Ring_Count>
4

> <Aromatic_Ring_Count>
4

> <Heavy_Atom_Count>
22

> <Molar_Refractivity>
73.87719999999999

> <QED_Score>
0.216284535941976

> <Veber_Status>
Fail

> <Ghose_Violations>
0

> <Ghose_Status>
Pass

$$$$
(-)-epigallocatechin-5,7-digallate
  AfroDiabDB_Exporter

  0  0  0  0  0  0  0  0  0  0999 V2000
M  END
> <Compound_ID>
AFRO-0111

> <Compound_Name>
(-)-epigallocatechin-5,7-digallate

> <Plant_Name>
Acacia nilotica

> <Common_Name>
Babul / Gum arabic tree

> <Plant_Family>
Mimosoideae

> <Plant_Part>
Stem bark

> <Country_of_Use>
Kenya

> <PubChem_CID>
74977180

> <Canonical_SMILES>
O=C(Oc1cc(OC(=O)c2cc(O)c(O)c(O)c2)c2c(c1)OC(c1cc(O)c(O)c(O)c1)C(O)C2)c1cc(O)c(O)c(O)c1

> <InChIKey>
YEPUYRJJVLBSCO-UHFFFAOYSA-N

> <Molecular_Formula>
C29H22O15

> <Molecular_Weight>
610.4800000000004

> <LogP>
2.5125

> <HBD>
10

> <HBA>
15

> <TPSA>
264.1299999999999

> <Rotatable_Bonds>
5

> <Lipinski_Violations>
3

> <Lipinski_Status>
Fail

> <Reported_Activity>
Antidiabetic

> <Assay_Target>
Metabolic targets

> <DOI_Reference>
10.3390/molecules28207202

> <Reference_Year>
2023

> <Compound_Class>
Catechin gallate

> <Compound_Superclass>
Flavonoid

> <Data_Source>
Isolation (Extraction)

> <Notes>
Isolated from stem bark.

> <Validation_Status>
Verified

> <Fraction_CSP3>
0.103448275862069

> <Ring_Count>
5

> <Aromatic_Ring_Count>
4

> <Heavy_Atom_Count>
44

> <Molar_Refractivity>
143.748

> <QED_Score>
0.08836205835090281

> <Veber_Status>
Fail

> <Ghose_Violations>
2

> <Ghose_Status>
Fail

$$$$
Catechin-7-O-gallate
  AfroDiabDB_Exporter

  0  0  0  0  0  0  0  0  0  0999 V2000
M  END
> <Compound_ID>
AFRO-0112

> <Compound_Name>
Catechin-7-O-gallate

> <Plant_Name>
Acacia nilotica

> <Common_Name>
Babul / Gum arabic tree

> <Plant_Family>
Mimosoideae

> <Plant_Part>
Stem bark

> <Country_of_Use>
Kenya

> <PubChem_CID>
471393

> <Canonical_SMILES>
O=C(Oc1cc(O)c2c(c1)OC(c1ccc(O)c(O)c1)C(O)C2)c1cc(O)c(O)c(O)c1

> <InChIKey>
WKIHBIBUCQPPBY-UHFFFAOYSA-N

> <Molecular_Formula>
C22H18O10

> <Molecular_Weight>
442.3760000000001

> <LogP>
2.1765

> <HBD>
7

> <HBA>
10

> <TPSA>
177.14

> <Rotatable_Bonds>
3

> <Lipinski_Violations>
1

> <Lipinski_Status>
Pass

> <Reported_Activity>
Antidiabetic

> <Assay_Target>
Metabolic targets

> <DOI_Reference>
10.3390/molecules28207202

> <Reference_Year>
2023

> <Compound_Class>
Flavanol gallate

> <Compound_Superclass>
Flavonoid

> <Data_Source>
Isolation (Extraction)

> <Notes>
Isolated from stem bark.

> <Validation_Status>
Verified

> <Fraction_CSP3>
0.1363636363636364

> <Ring_Count>
4

> <Aromatic_Ring_Count>
3

> <Heavy_Atom_Count>
32

> <Molar_Refractivity>
107.3531

> <QED_Score>
0.1806435242688321

> <Veber_Status>
Fail

> <Ghose_Violations>
0

> <Ghose_Status>
Pass

$$$$
Chalconaringenin-4'-O-β-glucopyranoside
  AfroDiabDB_Exporter

  0  0  0  0  0  0  0  0  0  0999 V2000
M  END
> <Compound_ID>
AFRO-0114

> <Compound_Name>
Chalconaringenin-4'-O-β-glucopyranoside

> <Plant_Name>
Acacia nilotica

> <Common_Name>
Babul / Gum arabic tree

> <Plant_Family>
Mimosoideae

> <Plant_Part>
Stem bark

> <Country_of_Use>
Kenya

> <PubChem_CID>
11743626

> <Canonical_SMILES>
O=C(C=Cc1ccc(O)cc1)c1c(O)cc(OC2OC(CO)C(O)C(O)C2O)cc1O

> <InChIKey>
ZYUSTWOCCKABCY-UHFFFAOYSA-N

> <Molecular_Formula>
C21H22O10

> <Molecular_Weight>
434.3970000000001

> <LogP>
-0.1218000000000001

> <HBD>
7

> <HBA>
10

> <TPSA>
177.14

> <Rotatable_Bonds>
6

> <Lipinski_Violations>
1

> <Lipinski_Status>
Pass

> <Reported_Activity>
Antidiabetic

> <Assay_Target>
Metabolic targets

> <DOI_Reference>
10.3390/molecules28207202

> <Reference_Year>
2023

> <Compound_Class>
Chalcone glycoside

> <Compound_Superclass>
Flavonoid

> <Data_Source>
Isolation (Extraction)

> <Notes>
Isolated from stem bark.

> <Validation_Status>
Verified

> <Fraction_CSP3>
0.2857142857142857

> <Ring_Count>
3

> <Aromatic_Ring_Count>
2

> <Heavy_Atom_Count>
31

> <Molar_Refractivity>
105.6381

> <QED_Score>
0.2394648200243623

> <Veber_Status>
Fail

> <Ghose_Violations>
0

> <Ghose_Status>
Pass

$$$$
Lupenone
  AfroDiabDB_Exporter

  0  0  0  0  0  0  0  0  0  0999 V2000
M  END
> <Compound_ID>
AFRO-0115

> <Compound_Name>
Lupenone

> <Plant_Name>
Acacia nilotica

> <Common_Name>
Babul / Gum arabic tree

> <Plant_Family>
Mimosoideae

> <Plant_Part>
Stem bark

> <Country_of_Use>
Kenya

> <PubChem_CID>
92158

> <Canonical_SMILES>
C=C(C)C1CCC2(C)CCC3(C)C(CCC4C5(C)CCC(=O)C(C)(C)C5CCC43C)C12

> <InChIKey>
GRBHNQFQFHLCHO-UHFFFAOYSA-N

> <Molecular_Formula>
C30H48O

> <Molecular_Weight>
424.7130000000003

> <LogP>
8.233000000000008

> <HBD>
0

> <HBA>
1

> <TPSA>
17.07

> <Rotatable_Bonds>
1

> <Lipinski_Violations>
1

> <Lipinski_Status>
Pass

> <Reported_Activity>
Anti-inflammatory

> <Assay_Target>
COX-1 / COX-2

> <DOI_Reference>
10.3390/molecules28207202

> <Reference_Year>
2023

> <Compound_Class>
Triterpenoid

> <Compound_Superclass>
Terpenoid

> <Data_Source>
Isolation (Extraction)

> <Notes>
Triterpene compound.

> <Validation_Status>
Verified

> <Fraction_CSP3>
0.9

> <Ring_Count>
5

> <Aromatic_Ring_Count>
0

> <Heavy_Atom_Count>
31

> <Molar_Refractivity>
129.6500000000001

> <QED_Score>
0.3873157630861667

> <Veber_Status>
Pass

> <Ghose_Violations>
1

> <Ghose_Status>
Fail

$$$$
Rutin
  AfroDiabDB_Exporter

  0  0  0  0  0  0  0  0  0  0999 V2000
M  END
> <Compound_ID>
AFRO-0116

> <Compound_Name>
Rutin

> <Plant_Name>
Acalypha wilkesiana

> <Common_Name>
Copperleaf

> <Plant_Family>
Euphorbiaceae

> <Plant_Part>
Leaves; stems; root bark

> <Country_of_Use>
Kenya

> <PubChem_CID>
5280805

> <Canonical_SMILES>
CC1OC(OCC2OC(Oc3c(-c4ccc(O)c(O)c4)oc4cc(O)cc(O)c4c3=O)C(O)C(O)C2O)C(O)C(O)C1O

> <InChIKey>
IKGXIBQEEMLURG-UHFFFAOYSA-N

> <Molecular_Formula>
C27H30O16

> <Molecular_Weight>
610.5210000000004

> <LogP>
-1.6871

> <HBD>
10

> <HBA>
16

> <TPSA>
269.4299999999999

> <Rotatable_Bonds>
6

> <Lipinski_Violations>
3

> <Lipinski_Status>
Fail

> <Reported_Activity>
Potentiates IRK / Glucose uptake

> <Assay_Target>
IRK / GLUT4

> <DOI_Reference>
10.3390/molecules28207202

> <Reference_Year>
2023

> <Compound_Class>
Flavonoid glycoside

> <Compound_Superclass>
Flavonoid

> <Data_Source>
Isolation (Extraction)

> <Notes>
Bioactive flavonoid.

> <Validation_Status>
Verified

> <Fraction_CSP3>
0.4444444444444444

> <Ring_Count>
5

> <Aromatic_Ring_Count>
3

> <Heavy_Atom_Count>
43

> <Molar_Refractivity>
140.196

> <QED_Score>
0.1395178432216246

> <Veber_Status>
Fail

> <Ghose_Violations>
3

> <Ghose_Status>
Fail

$$$$
Corilagin
  AfroDiabDB_Exporter

  0  0  0  0  0  0  0  0  0  0999 V2000
M  END
> <Compound_ID>
AFRO-0117

> <Compound_Name>
Corilagin

> <Plant_Name>
Acalypha wilkesiana

> <Common_Name>
Copperleaf

> <Plant_Family>
Euphorbiaceae

> <Plant_Part>
Leaves; stems; root bark

> <Country_of_Use>
Kenya

> <PubChem_CID>
73568

> <Canonical_SMILES>
O=C(OC1OC2COC(=O)c3cc(O)c(O)c(O)c3-c3c(cc(O)c(O)c3O)C(=O)OC(C2O)C1O)c1cc(O)c(O)c(O)c1

> <InChIKey>
TUSDEZXZIZRFGC-UHFFFAOYSA-N

> <Molecular_Formula>
C27H22O18

> <Molecular_Weight>
634.4550000000004

> <LogP>
-0.2965000000000007

> <HBD>
11

> <HBA>
18

> <TPSA>
310.66

> <Rotatable_Bonds>
2

> <Lipinski_Violations>
3

> <Lipinski_Status>
Fail

> <Reported_Activity>
Antidiabetic

> <Assay_Target>
Metabolic targets

> <DOI_Reference>
10.3390/molecules28207202

> <Reference_Year>
2023

> <Compound_Class>
Ellagitannin

> <Compound_Superclass>
Phenolic Compound

> <Data_Source>
Isolation (Extraction)

> <Notes>
Bioactive tannin.

> <Validation_Status>
Verified

> <Fraction_CSP3>
0.2222222222222222

> <Ring_Count>
5

> <Aromatic_Ring_Count>
3

> <Heavy_Atom_Count>
45

> <Molar_Refractivity>
138.8793

> <QED_Score>
0.09789164014597279

> <Veber_Status>
Fail

> <Ghose_Violations>
2

> <Ghose_Status>
Fail

$$$$
Geraniin
  AfroDiabDB_Exporter

  0  0  0  0  0  0  0  0  0  0999 V2000
M  END
> <Compound_ID>
AFRO-0118

> <Compound_Name>
Geraniin

> <Plant_Name>
Acalypha wilkesiana

> <Common_Name>
Copperleaf

> <Plant_Family>
Euphorbiaceae

> <Plant_Part>
Leaves; stems; root bark

> <Country_of_Use>
Kenya

> <PubChem_CID>
3001497

> <Canonical_SMILES>
O=C1OC2C3COC(=O)c4cc(O)c(O)c(O)c4-c4c(cc(O)c(O)c4O)C(=O)OC2C(OC(=O)c2cc(O)c(O)c4c2C2C1=CC(=O)C(O)(O4)C2(O)O)C(OC(=O)c1cc(O)c(O)c(O)c1)O3

> <InChIKey>
JQQBXPCJFAKSPG-UHFFFAOYSA-N

> <Molecular_Formula>
C41H28O27

> <Molecular_Weight>
952.6480000000006

> <LogP>
-1.101500000000001

> <HBD>
14

> <HBA>
27

> <TPSA>
450.2500000000001

> <Rotatable_Bonds>
2

> <Lipinski_Violations>
3

> <Lipinski_Status>
Fail

> <Reported_Activity>
Antidiabetic

> <Assay_Target>
Metabolic targets

> <DOI_Reference>
10.3390/molecules28207202

> <Reference_Year>
2023

> <Compound_Class>
Ellagitannin

> <Compound_Superclass>
Phenolic Compound

> <Data_Source>
Isolation (Extraction)

> <Notes>
Bioactive tannin.

> <Validation_Status>
Verified

> <Fraction_CSP3>
0.2195121951219512

> <Ring_Count>
9

> <Aromatic_Ring_Count>
4

> <Heavy_Atom_Count>
68

> <Molar_Refractivity>
204.2982

> <QED_Score>
0.04905629161844852

> <Veber_Status>
Fail

> <Ghose_Violations>
3

> <Ghose_Status>
Fail

$$$$
Kaempferol 3-O-rutinoside
  AfroDiabDB_Exporter

  0  0  0  0  0  0  0  0  0  0999 V2000
M  END
> <Compound_ID>
AFRO-0119

> <Compound_Name>
Kaempferol 3-O-rutinoside

> <Plant_Name>
Acalypha wilkesiana

> <Common_Name>
Copperleaf

> <Plant_Family>
Euphorbiaceae

> <Plant_Part>
Leaves; stems; root bark

> <Country_of_Use>
Kenya

> <PubChem_CID>
5318767

> <Canonical_SMILES>
CC1OC(OCC2OC(Oc3c(-c4ccc(O)cc4)oc4cc(O)cc(O)c4c3=O)C(O)C(O)C2O)C(O)C(O)C1O

> <InChIKey>
RTATXGUCZHCSNG-UHFFFAOYSA-N

> <Molecular_Formula>
C27H30O15

> <Molecular_Weight>
594.5220000000004

> <LogP>
-1.3927

> <HBD>
9

> <HBA>
15

> <TPSA>
249.2

> <Rotatable_Bonds>
6

> <Lipinski_Violations>
3

> <Lipinski_Status>
Fail

> <Reported_Activity>
Antidiabetic

> <Assay_Target>
Metabolic targets

> <DOI_Reference>
10.3390/molecules28207202

> <Reference_Year>
2023

> <Compound_Class>
Flavonoid glycoside

> <Compound_Superclass>
Flavonoid

> <Data_Source>
Isolation (Extraction)

> <Notes>
Bioactive flavonoid.

> <Validation_Status>
Verified

> <Fraction_CSP3>
0.4444444444444444

> <Ring_Count>
5

> <Aromatic_Ring_Count>
3

> <Heavy_Atom_Count>
42

> <Molar_Refractivity>
138.5312

> <QED_Score>
0.1592907073840895

> <Veber_Status>
Fail

> <Ghose_Violations>
3

> <Ghose_Status>
Fail

$$$$
Alliuocide G
  AfroDiabDB_Exporter

  0  0  0  0  0  0  0  0  0  0999 V2000
M  END
> <Compound_ID>
AFRO-0120

> <Compound_Name>
Alliuocide G

> <Plant_Name>
Allium cepa

> <Common_Name>
Onion

> <Plant_Family>
Amaryllidaceae

> <Plant_Part>
Whole plant

> <Country_of_Use>
Kenya

> <PubChem_CID>
163184125

> <Canonical_SMILES>
O=C1c2c(O)cc(O)cc2OC2(c3ccc(O)c(O)c3)Oc3ccc(O)cc3OC12O

> <InChIKey>
YBYGGWSLHBZIFH-UHFFFAOYSA-N

> <Molecular_Formula>
C21H14O10

> <Molecular_Weight>
426.3330000000001

> <LogP>
1.802699999999999

> <HBD>
6

> <HBA>
10

> <TPSA>
166.14

> <Rotatable_Bonds>
1

> <Lipinski_Violations>
1

> <Lipinski_Status>
Pass

> <Reported_Activity>
Inhibition of α-amylase (96.5%)

> <Assay_Target>
α-Amylase

> <DOI_Reference>
10.3390/molecules28207202

> <Reference_Year>
2023

> <Compound_Class>
Flavonoid

> <Compound_Superclass>
Flavonoid

> <Data_Source>
Isolation (Extraction)

> <Notes>
Exhibited highest α-amylase inhibition.

> <Validation_Status>
Verified

> <Fraction_CSP3>
0.09523809523809523

> <Ring_Count>
5

> <Aromatic_Ring_Count>
3

> <Heavy_Atom_Count>
31

> <Molar_Refractivity>
100.4923

> <QED_Score>
0.3159151665772259

> <Veber_Status>
Fail

> <Ghose_Violations>
0

> <Ghose_Status>
Pass

$$$$
2-(3,4-Dihydroxybenzoyl)-2,4,6-trihydroxy-3(2H)-benzofuranone
  AfroDiabDB_Exporter

  0  0  0  0  0  0  0  0  0  0999 V2000
M  END
> <Compound_ID>
AFRO-0121

> <Compound_Name>
2-(3,4-Dihydroxybenzoyl)-2,4,6-trihydroxy-3(2H)-benzofuranone

> <Plant_Name>
Allium cepa

> <Common_Name>
Onion

> <Plant_Family>
Amaryllidaceae

> <Plant_Part>
Whole plant

> <Country_of_Use>
Kenya

> <PubChem_CID>
54378453

> <Canonical_SMILES>
O=C(c1ccc(O)c(O)c1)C1(O)Oc2cc(O)cc(O)c2C1=O

> <InChIKey>
UYFQPTAFLCOYSM-UHFFFAOYSA-N

> <Molecular_Formula>
C15H10O8

> <Molecular_Weight>
318.2370000000001

> <LogP>
0.6556

> <HBD>
5

> <HBA>
8

> <TPSA>
144.52

> <Rotatable_Bonds>
2

> <Lipinski_Violations>
0

> <Lipinski_Status>
Pass

> <Reported_Activity>
Inhibition of α-amylase

> <Assay_Target>
α-Amylase

> <DOI_Reference>
10.3390/molecules28207202

> <Reference_Year>
2023

> <Compound_Class>
Benzofuranone

> <Compound_Superclass>
Quinone

> <Data_Source>
Isolation (Extraction)

> <Notes>
Active isolated constituent.

> <Validation_Status>
Verified

> <Fraction_CSP3>
0.06666666666666667

> <Ring_Count>
3

> <Aromatic_Ring_Count>
2

> <Heavy_Atom_Count>
23

> <Molar_Refractivity>
73.782

> <QED_Score>
0.3082947010104619

> <Veber_Status>
Fail

> <Ghose_Violations>
0

> <Ghose_Status>
Pass

$$$$
Luteolin-7-O-D-glucopyranoside
  AfroDiabDB_Exporter

  0  0  0  0  0  0  0  0  0  0999 V2000
M  END
> <Compound_ID>
AFRO-0122

> <Compound_Name>
Luteolin-7-O-D-glucopyranoside

> <Plant_Name>
Allium cepa

> <Common_Name>
Onion

> <Plant_Family>
Amaryllidaceae

> <Plant_Part>
Whole plant

> <Country_of_Use>
Kenya

> <PubChem_CID>
5280637

> <Canonical_SMILES>
O=c1cc(-c2ccc(O)c(O)c2)oc2cc(OC3OC(CO)C(O)C(O)C3O)cc(O)c12

> <InChIKey>
PEFNSGRTCBGNAN-UHFFFAOYSA-N

> <Molecular_Formula>
C21H20O11

> <Molecular_Weight>
448.3800000000001

> <LogP>
-0.2445000000000002

> <HBD>
7

> <HBA>
11

> <TPSA>
190.28

> <Rotatable_Bonds>
4

> <Lipinski_Violations>
2

> <Lipinski_Status>
Fail

> <Reported_Activity>
Inhibition of α-amylase

> <Assay_Target>
α-Amylase

> <DOI_Reference>
10.3390/molecules28207202

> <Reference_Year>
2023

> <Compound_Class>
Flavonoid glycoside

> <Compound_Superclass>
Flavonoid

> <Data_Source>
Isolation (Extraction)

> <Notes>
Active isolated constituent.

> <Validation_Status>
Verified

> <Fraction_CSP3>
0.2857142857142857

> <Ring_Count>
4

> <Aromatic_Ring_Count>
3

> <Heavy_Atom_Count>
32

> <Molar_Refractivity>
107.3096

> <QED_Score>
0.2606452175948753

> <Veber_Status>
Fail

> <Ghose_Violations>
0

> <Ghose_Status>
Pass

$$$$
Quercetin 3,4'-diglucoside
  AfroDiabDB_Exporter

  0  0  0  0  0  0  0  0  0  0999 V2000
M  END
> <Compound_ID>
AFRO-0123

> <Compound_Name>
Quercetin 3,4'-diglucoside

> <Plant_Name>
Allium cepa

> <Common_Name>
Onion

> <Plant_Family>
Amaryllidaceae

> <Plant_Part>
Whole plant

> <Country_of_Use>
Kenya

> <PubChem_CID>
5320835

> <Canonical_SMILES>
O=c1c(OC2OC(CO)C(O)C(O)C2O)c(-c2ccc(OC3OC(CO)C(O)C(O)C3O)c(O)c2)oc2cc(O)cc(O)c12

> <InChIKey>
RPVIQWDFJPYNJM-UHFFFAOYSA-N

> <Molecular_Formula>
C27H30O17

> <Molecular_Weight>
626.5200000000002

> <LogP>
-3.065799999999999

> <HBD>
11

> <HBA>
17

> <TPSA>
289.66

> <Rotatable_Bonds>
7

> <Lipinski_Violations>
3

> <Lipinski_Status>
Fail

> <Reported_Activity>
Antidiabetic / Antioxidant

> <Assay_Target>
Glucose metabolism targets

> <DOI_Reference>
10.3390/molecules28207202

> <Reference_Year>
2023

> <Compound_Class>
Flavonoid glycoside

> <Compound_Superclass>
Flavonoid

> <Data_Source>
Isolation (Extraction)

> <Notes>
Major onion flavonol.

> <Validation_Status>
Verified

> <Fraction_CSP3>
0.4444444444444444

> <Ring_Count>
5

> <Aromatic_Ring_Count>
3

> <Heavy_Atom_Count>
44

> <Molar_Refractivity>
141.7048

> <QED_Score>
0.1240060114086665

> <Veber_Status>
Fail

> <Ghose_Violations>
3

> <Ghose_Status>
Fail

$$$$
Isorhamnetin 3,4'-diglucoside
  AfroDiabDB_Exporter

  0  0  0  0  0  0  0  0  0  0999 V2000
M  END
> <Compound_ID>
AFRO-0124

> <Compound_Name>
Isorhamnetin 3,4'-diglucoside

> <Plant_Name>
Allium cepa

> <Common_Name>
Onion

> <Plant_Family>
Amaryllidaceae

> <Plant_Part>
Whole plant

> <Country_of_Use>
Kenya

> <PubChem_CID>
11802256

> <Canonical_SMILES>
COc1cc(-c2oc3cc(O)cc(O)c3c(=O)c2OC2OC(CO)C(O)C(O)C2O)ccc1OC1OC(CO)C(O)C(O)C1O

> <InChIKey>
VKVBSQRURLRCHO-UHFFFAOYSA-N

> <Molecular_Formula>
C28H32O17

> <Molecular_Weight>
640.5470000000004

> <LogP>
-2.762799999999999

> <HBD>
10

> <HBA>
17

> <TPSA>
278.66

> <Rotatable_Bonds>
8

> <Lipinski_Violations>
3

> <Lipinski_Status>
Fail

> <Reported_Activity>
Antidiabetic

> <Assay_Target>
Metabolic targets

> <DOI_Reference>
10.3390/molecules28207202

> <Reference_Year>
2023

> <Compound_Class>
Flavonoid glycoside

> <Compound_Superclass>
Flavonoid

> <Data_Source>
Isolation (Extraction)

> <Notes>
Flavonol derivative.

> <Validation_Status>
Verified

> <Fraction_CSP3>
0.4642857142857143

> <Ring_Count>
5

> <Aromatic_Ring_Count>
3

> <Heavy_Atom_Count>
45

> <Molar_Refractivity>
146.5919999999999

> <QED_Score>
0.1193092558067772

> <Veber_Status>
Fail

> <Ghose_Violations>
3

> <Ghose_Status>
Fail

$$$$
Quercetin 7-glucoside
  AfroDiabDB_Exporter

  0  0  0  0  0  0  0  0  0  0999 V2000
M  END
> <Compound_ID>
AFRO-0125

> <Compound_Name>
Quercetin 7-glucoside

> <Plant_Name>
Allium cepa

> <Common_Name>
Onion

> <Plant_Family>
Amaryllidaceae

> <Plant_Part>
Whole plant

> <Country_of_Use>
Kenya

> <PubChem_CID>
5282160

> <Canonical_SMILES>
O=c1c(O)c(-c2ccc(O)c(O)c2)oc2cc(OC3OC(CO)C(O)C(O)C3O)cc(O)c12

> <InChIKey>
BBFYUPYFXSSMNV-UHFFFAOYSA-N

> <Molecular_Formula>
C21H20O12

> <Molecular_Weight>
464.3790000000001

> <LogP>
-0.5389000000000004

> <HBD>
8

> <HBA>
12

> <TPSA>
210.51

> <Rotatable_Bonds>
4

> <Lipinski_Violations>
2

> <Lipinski_Status>
Fail

> <Reported_Activity>
Antidiabetic

> <Assay_Target>
Metabolic targets

> <DOI_Reference>
10.3390/molecules28207202

> <Reference_Year>
2023

> <Compound_Class>
Flavonoid glycoside

> <Compound_Superclass>
Flavonoid

> <Data_Source>
Isolation (Extraction)

> <Notes>
Flavonol derivative.

> <Validation_Status>
Verified

> <Fraction_CSP3>
0.2857142857142857

> <Ring_Count>
4

> <Aromatic_Ring_Count>
3

> <Heavy_Atom_Count>
33

> <Molar_Refractivity>
108.9744

> <QED_Score>
0.2288751447852227

> <Veber_Status>
Fail

> <Ghose_Violations>
1

> <Ghose_Status>
Fail

$$$$
Cyanidin 4'-O-beta-glucoside
  AfroDiabDB_Exporter

  0  0  0  0  0  0  0  0  0  0999 V2000
M  END
> <Compound_ID>
AFRO-0126

> <Compound_Name>
Cyanidin 4'-O-beta-glucoside

> <Plant_Name>
Allium cepa

> <Common_Name>
Onion

> <Plant_Family>
Amaryllidaceae

> <Plant_Part>
Whole plant

> <Country_of_Use>
Kenya

> <PubChem_CID>
5316221

> <Canonical_SMILES>
OCC1OC(Oc2ccc(-c3[o+]c4cc(O)cc(O)c4cc3O)cc2O)C(O)C(O)C1O

> <InChIKey>
CSNMEDJMOXSNRZ-UHFFFAOYSA-O

> <Molecular_Formula>
C21H21O11+

> <Molecular_Weight>
449.3880000000001

> <LogP>
0.3820000000000002

> <HBD>
8

> <HBA>
10

> <TPSA>
191.6

> <Rotatable_Bonds>
4

> <Lipinski_Violations>
1

> <Lipinski_Status>
Pass

> <Reported_Activity>
Antidiabetic

> <Assay_Target>
Free radicals

> <DOI_Reference>
10.3390/molecules28207202

> <Reference_Year>
2023

> <Compound_Class>
Anthocyanin

> <Compound_Superclass>
Flavonoid

> <Data_Source>
Isolation (Extraction)

> <Notes>
Pigment constituent.

> <Validation_Status>
Verified

> <Fraction_CSP3>
0.2857142857142857

> <Ring_Count>
4

> <Aromatic_Ring_Count>
3

> <Heavy_Atom_Count>
32

> <Molar_Refractivity>
107.1114

> <QED_Score>
0.2568697277089533

> <Veber_Status>
Fail

> <Ghose_Violations>
0

> <Ghose_Status>
Pass

$$$$
Isoalliin
  AfroDiabDB_Exporter

  0  0  0  0  0  0  0  0  0  0999 V2000
M  END
> <Compound_ID>
AFRO-0127

> <Compound_Name>
Isoalliin

> <Plant_Name>
Allium cepa

> <Common_Name>
Onion

> <Plant_Family>
Amaryllidaceae

> <Plant_Part>
Whole plant

> <Country_of_Use>
Kenya

> <PubChem_CID>
118989467

> <Canonical_SMILES>
CC=CS(=O)CC(N)C(=O)O

> <InChIKey>
OKYHUOHBRKWCQJ-UHFFFAOYSA-N

> <Molecular_Formula>
C6H11NO3S

> <Molecular_Weight>
177.225

> <LogP>
-0.3194

> <HBD>
2

> <HBA>
3

> <TPSA>
80.39

> <Rotatable_Bonds>
4

> <Lipinski_Violations>
0

> <Lipinski_Status>
Pass

> <Reported_Activity>
Antidiabetic

> <Assay_Target>
Metabolic targets

> <DOI_Reference>
10.3390/molecules28207202

> <Reference_Year>
2023

> <Compound_Class>
Organosulfur

> <Compound_Superclass>
Organosulfur Compound

> <Data_Source>
Isolation (Extraction)

> <Notes>
Sulfur-containing compound.

> <Validation_Status>
Verified

> <Fraction_CSP3>
0.5

> <Ring_Count>
0

> <Aromatic_Ring_Count>
0

> <Heavy_Atom_Count>
11

> <Molar_Refractivity>
43.43460000000001

> <QED_Score>
0.6164155973945545

> <Veber_Status>
Pass

> <Ghose_Violations>
1

> <Ghose_Status>
Fail

$$$$
N-(gamma-glutamyl)-S-methyl-L-cysteine
  AfroDiabDB_Exporter

  0  0  0  0  0  0  0  0  0  0999 V2000
M  END
> <Compound_ID>
AFRO-0128

> <Compound_Name>
N-(gamma-glutamyl)-S-methyl-L-cysteine

> <Plant_Name>
Allium cepa

> <Common_Name>
Onion

> <Plant_Family>
Amaryllidaceae

> <Plant_Part>
Whole plant

> <Country_of_Use>
Kenya

> <PubChem_CID>
13894650

> <Canonical_SMILES>
CSCC(NC(=O)CCC(N)C(=O)O)C(=O)O

> <InChIKey>
UPCDLBPYWXOCOK-UHFFFAOYSA-N

> <Molecular_Formula>
C9H16N2O5S

> <Molecular_Weight>
264.3029999999999

> <LogP>
-0.8890999999999984

> <HBD>
4

> <HBA>
5

> <TPSA>
129.72

> <Rotatable_Bonds>
8

> <Lipinski_Violations>
0

> <Lipinski_Status>
Pass

> <Reported_Activity>
Antidiabetic

> <Assay_Target>
Metabolic targets

> <DOI_Reference>
10.3390/molecules28207202

> <Reference_Year>
2023

> <Compound_Class>
Dipeptide / Amino acid derivative

> <Compound_Superclass>
Amino Acid Derivative

> <Data_Source>
Isolation (Extraction)

> <Notes>
Sulfur precursor.

> <Validation_Status>
Verified

> <Fraction_CSP3>
0.6666666666666666

> <Ring_Count>
0

> <Aromatic_Ring_Count>
0

> <Heavy_Atom_Count>
17

> <Molar_Refractivity>
62.79370000000002

> <QED_Score>
0.4471829471662284

> <Veber_Status>
Pass

> <Ghose_Violations>
2

> <Ghose_Status>
Fail

$$$$
Laccaic acid D
  AfroDiabDB_Exporter

  0  0  0  0  0  0  0  0  0  0999 V2000
M  END
> <Compound_ID>
AFRO-0129

> <Compound_Name>
Laccaic acid D

> <Plant_Name>
Aloe secundiflora

> <Common_Name>
Aloe

> <Plant_Family>
Asphodelaceae

> <Plant_Part>
Roots

> <Country_of_Use>
Kenya

> <PubChem_CID>
9883304

> <Canonical_SMILES>
Cc1c(C(=O)O)c(O)cc2c1C(=O)c1c(O)cc(O)cc1C2=O

> <InChIKey>
DDTNCHWMNZLWKO-UHFFFAOYSA-N

> <Molecular_Formula>
C16H10O7

> <Molecular_Weight>
314.249

> <LogP>
1.585419999999999

> <HBD>
4

> <HBA>
6

> <TPSA>
132.13

> <Rotatable_Bonds>
1

> <Lipinski_Violations>
0

> <Lipinski_Status>
Pass

> <Reported_Activity>
Antidiabetic / Antioxidant

> <Assay_Target>
Metabolic targets

> <DOI_Reference>
10.3390/molecules28207202

> <Reference_Year>
2023

> <Compound_Class>
Anthraquinone

> <Compound_Superclass>
Quinone

> <Data_Source>
Isolation (Extraction)

> <Notes>
Anthraquinone pigment.

> <Validation_Status>
Verified

> <Fraction_CSP3>
0.0625

> <Ring_Count>
3

> <Aromatic_Ring_Count>
2

> <Heavy_Atom_Count>
23

> <Molar_Refractivity>
76.43970000000002

> <QED_Score>
0.5358031214194674

> <Veber_Status>
Pass

> <Ghose_Violations>
0

> <Ghose_Status>
Pass

$$$$
3-Methoxy-2-methylnaphthalene-1,4-dione
  AfroDiabDB_Exporter

  0  0  0  0  0  0  0  0  0  0999 V2000
M  END
> <Compound_ID>
AFRO-0130

> <Compound_Name>
3-Methoxy-2-methylnaphthalene-1,4-dione

> <Plant_Name>
Aloe secundiflora

> <Common_Name>
Aloe

> <Plant_Family>
Asphodelaceae

> <Plant_Part>
Roots

> <Country_of_Use>
Kenya

> <PubChem_CID>
79441

> <Canonical_SMILES>
COC1=C(C)C(=O)c2ccccc2C1=O

> <InChIKey>
CNZJAOOYWYLTEC-UHFFFAOYSA-N

> <Molecular_Formula>
C12H10O3

> <Molecular_Weight>
202.209

> <LogP>
1.986

> <HBD>
0

> <HBA>
3

> <TPSA>
43.37

> <Rotatable_Bonds>
1

> <Lipinski_Violations>
0

> <Lipinski_Status>
Pass

> <Reported_Activity>
Antidiabetic

> <Assay_Target>
Metabolic targets

> <DOI_Reference>
10.3390/molecules28207202

> <Reference_Year>
2023

> <Compound_Class>
Naphthoquinone

> <Compound_Superclass>
Quinone

> <Data_Source>
Isolation (Extraction)

> <Notes>
Root isolate.

> <Validation_Status>
Verified

> <Fraction_CSP3>
0.1666666666666667

> <Ring_Count>
2

> <Aromatic_Ring_Count>
1

> <Heavy_Atom_Count>
15

> <Molar_Refractivity>
54.81200000000003

> <QED_Score>
0.6989735876333985

> <Veber_Status>
Pass

> <Ghose_Violations>
1

> <Ghose_Status>
Fail

$$$$
Chrysophanol
  AfroDiabDB_Exporter

  0  0  0  0  0  0  0  0  0  0999 V2000
M  END
> <Compound_ID>
AFRO-0131

> <Compound_Name>
Chrysophanol

> <Plant_Name>
Aloe secundiflora

> <Common_Name>
Aloe

> <Plant_Family>
Asphodelaceae

> <Plant_Part>
Roots

> <Country_of_Use>
Kenya

> <PubChem_CID>
10208

> <Canonical_SMILES>
Cc1cc(O)c2c(c1)C(=O)c1cccc(O)c1C2=O

> <InChIKey>
LQGUBLBATBMXHT-UHFFFAOYSA-N

> <Molecular_Formula>
C15H10O4

> <Molecular_Weight>
254.241

> <LogP>
2.18162

> <HBD>
2

> <HBA>
4

> <TPSA>
74.6

> <Rotatable_Bonds>
0

> <Lipinski_Violations>
0

> <Lipinski_Status>
Pass

> <Reported_Activity>
Antidiabetic

> <Assay_Target>
Metabolic targets

> <DOI_Reference>
10.3390/molecules28207202

> <Reference_Year>
2023

> <Compound_Class>
Anthraquinone

> <Compound_Superclass>
Quinone

> <Data_Source>
Isolation (Extraction)

> <Notes>
Active anthraquinone.

> <Validation_Status>
Verified

> <Fraction_CSP3>
0.06666666666666667

> <Ring_Count>
3

> <Aromatic_Ring_Count>
2

> <Heavy_Atom_Count>
19

> <Molar_Refractivity>
67.81560000000002

> <QED_Score>
0.6444480285471402

> <Veber_Status>
Pass

> <Ghose_Violations>
1

> <Ghose_Status>
Fail

$$$$
Helminthosporin
  AfroDiabDB_Exporter

  0  0  0  0  0  0  0  0  0  0999 V2000
M  END
> <Compound_ID>
AFRO-0132

> <Compound_Name>
Helminthosporin

> <Plant_Name>
Aloe secundiflora

> <Common_Name>
Aloe

> <Plant_Family>
Asphodelaceae

> <Plant_Part>
Roots

> <Country_of_Use>
Kenya

> <PubChem_CID>
97560

> <Canonical_SMILES>
Cc1cc(O)c2c(c1)C(=O)c1c(O)ccc(O)c1C2=O

> <InChIKey>
YOOXNSPYGCZLAX-UHFFFAOYSA-N

> <Molecular_Formula>
C15H10O5

> <Molecular_Weight>
270.24

> <LogP>
1.88722

> <HBD>
3

> <HBA>
5

> <TPSA>
94.83000000000001

> <Rotatable_Bonds>
0

> <Lipinski_Violations>
0

> <Lipinski_Status>
Pass

> <Reported_Activity>
Antidiabetic

> <Assay_Target>
Metabolic targets

> <DOI_Reference>
10.3390/molecules28207202

> <Reference_Year>
2023

> <Compound_Class>
Anthraquinone

> <Compound_Superclass>
Quinone

> <Data_Source>
Isolation (Extraction)

> <Notes>
Root isolate.

> <Validation_Status>
Verified

> <Fraction_CSP3>
0.06666666666666667

> <Ring_Count>
3

> <Aromatic_Ring_Count>
2

> <Heavy_Atom_Count>
20

> <Molar_Refractivity>
69.4804

> <QED_Score>
0.5420948164480446

> <Veber_Status>
Pass

> <Ghose_Violations>
0

> <Ghose_Status>
Pass

$$$$
Aloesaponarin I
  AfroDiabDB_Exporter

  0  0  0  0  0  0  0  0  0  0999 V2000
M  END
> <Compound_ID>
AFRO-0133

> <Compound_Name>
Aloesaponarin I

> <Plant_Name>
Aloe secundiflora

> <Common_Name>
Aloe

> <Plant_Family>
Asphodelaceae

> <Plant_Part>
Roots

> <Country_of_Use>
Kenya

> <PubChem_CID>
11098986

> <Canonical_SMILES>
COC(=O)c1c(O)cc2c(c1C)C(=O)c1c(O)cccc1C2=O

> <InChIKey>
OWMIPWWYWUGBCG-UHFFFAOYSA-N

> <Molecular_Formula>
C17H12O6

> <Molecular_Weight>
312.277

> <LogP>
1.96822

> <HBD>
2

> <HBA>
6

> <TPSA>
100.9

> <Rotatable_Bonds>
1

> <Lipinski_Violations>
0

> <Lipinski_Status>
Pass

> <Reported_Activity>
Antidiabetic

> <Assay_Target>
Metabolic targets

> <DOI_Reference>
10.3390/molecules28207202

> <Reference_Year>
2023

> <Compound_Class>
Anthraquinone

> <Compound_Superclass>
Quinone

> <Data_Source>
Isolation (Extraction)

> <Notes>
Root isolate.

> <Validation_Status>
Verified

> <Fraction_CSP3>
0.1176470588235294

> <Ring_Count>
3

> <Aromatic_Ring_Count>
2

> <Heavy_Atom_Count>
23

> <Molar_Refractivity>
79.15510000000002

> <QED_Score>
0.6662090577019648

> <Veber_Status>
Pass

> <Ghose_Violations>
0

> <Ghose_Status>
Pass

$$$$
Aloesaponarin II
  AfroDiabDB_Exporter

  0  0  0  0  0  0  0  0  0  0999 V2000
M  END
> <Compound_ID>
AFRO-0134

> <Compound_Name>
Aloesaponarin II

> <Plant_Name>
Aloe secundiflora

> <Common_Name>
Aloe

> <Plant_Family>
Asphodelaceae

> <Plant_Part>
Roots

> <Country_of_Use>
Kenya

> <PubChem_CID>
3085033

> <Canonical_SMILES>
Cc1cc(O)cc2c1C(=O)c1c(O)cccc1C2=O

> <InChIKey>
BXWJOXJOMFDQNV-UHFFFAOYSA-N

> <Molecular_Formula>
C15H10O4

> <Molecular_Weight>
254.241

> <LogP>
2.18162

> <HBD>
2

> <HBA>
4

> <TPSA>
74.6

> <Rotatable_Bonds>
0

> <Lipinski_Violations>
0

> <Lipinski_Status>
Pass

> <Reported_Activity>
Antidiabetic

> <Assay_Target>
Metabolic targets

> <DOI_Reference>
10.3390/molecules28207202

> <Reference_Year>
2023

> <Compound_Class>
Anthraquinone

> <Compound_Superclass>
Quinone

> <Data_Source>
Isolation (Extraction)

> <Notes>
Root isolate.

> <Validation_Status>
Verified

> <Fraction_CSP3>
0.06666666666666667

> <Ring_Count>
3

> <Aromatic_Ring_Count>
2

> <Heavy_Atom_Count>
19

> <Molar_Refractivity>
67.81560000000002

> <QED_Score>
0.6444480285471403

> <Veber_Status>
Pass

> <Ghose_Violations>
1

> <Ghose_Status>
Fail

$$$$
Asphodelin
  AfroDiabDB_Exporter

  0  0  0  0  0  0  0  0  0  0999 V2000
M  END
> <Compound_ID>
AFRO-0135

> <Compound_Name>
Asphodelin

> <Plant_Name>
Aloe secundiflora

> <Common_Name>
Aloe

> <Plant_Family>
Asphodelaceae

> <Plant_Part>
Roots

> <Country_of_Use>
Kenya

> <PubChem_CID>
182665

> <Canonical_SMILES>
Cc1cc(O)c2c(c1)C(=O)c1ccc(-c3c(C)cc(O)c4c3C(=O)c3cccc(O)c3C4=O)c(O)c1C2=O

> <InChIKey>
BXWGUDGILDGCGB-UHFFFAOYSA-N

> <Molecular_Formula>
C30H18O8

> <Molecular_Weight>
506.4660000000003

> <LogP>
4.343640000000004

> <HBD>
4

> <HBA>
8

> <TPSA>
149.2

> <Rotatable_Bonds>
1

> <Lipinski_Violations>
1

> <Lipinski_Status>
Pass

> <Reported_Activity>
Antidiabetic

> <Assay_Target>
Metabolic targets

> <DOI_Reference>
10.3390/molecules28207202

> <Reference_Year>
2023

> <Compound_Class>
Bianthraquinoid

> <Compound_Superclass>
Quinone

> <Data_Source>
Isolation (Extraction)

> <Notes>
Dimeric anthraquinone.

> <Validation_Status>
Verified

> <Fraction_CSP3>
0.06666666666666667

> <Ring_Count>
6

> <Aromatic_Ring_Count>
4

> <Heavy_Atom_Count>
38

> <Molar_Refractivity>
134.6252

> <QED_Score>
0.2572568150037942

> <Veber_Status>
Fail

> <Ghose_Violations>
2

> <Ghose_Status>
Fail

$$$$
Hydroxyacetophenone
  AfroDiabDB_Exporter

  0  0  0  0  0  0  0  0  0  0999 V2000
M  END
> <Compound_ID>
AFRO-0136

> <Compound_Name>
Hydroxyacetophenone

> <Plant_Name>
Carissa edulis

> <Common_Name>
Natal plum

> <Plant_Family>
Apocynaceae

> <Plant_Part>
Roots, fruits, leaves

> <Country_of_Use>
Kenya

> <PubChem_CID>
7469

> <Canonical_SMILES>
CC(=O)c1ccc(O)cc1

> <InChIKey>
TXFPEBPIARQUIG-UHFFFAOYSA-N

> <Molecular_Formula>
C8H8O2

> <Molecular_Weight>
136.15

> <LogP>
1.5948

> <HBD>
1

> <HBA>
2

> <TPSA>
37.3

> <Rotatable_Bonds>
1

> <Lipinski_Violations>
0

> <Lipinski_Status>
Pass

> <Reported_Activity>
Antidiabetic

> <Assay_Target>
Metabolic targets

> <DOI_Reference>
10.3390/molecules28207202

> <Reference_Year>
2023

> <Compound_Class>
Phenone

> <Compound_Superclass>
Miscellaneous

> <Data_Source>
Isolation (Extraction)

> <Notes>
Isolated from C. edulis.

> <Validation_Status>
Verified

> <Fraction_CSP3>
0.125

> <Ring_Count>
1

> <Aromatic_Ring_Count>
1

> <Heavy_Atom_Count>
10

> <Molar_Refractivity>
38.11130000000001

> <QED_Score>
0.5951083320007401

> <Veber_Status>
Pass

> <Ghose_Violations>
3

> <Ghose_Status>
Fail

$$$$
Catalponol
  AfroDiabDB_Exporter

  0  0  0  0  0  0  0  0  0  0999 V2000
M  END
> <Compound_ID>
AFRO-0137

> <Compound_Name>
Catalponol

> <Plant_Name>
Carissa edulis

> <Common_Name>
Natal plum

> <Plant_Family>
Apocynaceae

> <Plant_Part>
Roots, fruits, leaves

> <Country_of_Use>
Kenya

> <PubChem_CID>
169570

> <Canonical_SMILES>
CC(C)=CCC1CC(O)c2ccccc2C1=O

> <InChIKey>
BTQXIESSQVRLCV-UHFFFAOYSA-N

> <Molecular_Formula>
C15H18O2

> <Molecular_Weight>
230.307

> <LogP>
3.278900000000002

> <HBD>
1

> <HBA>
2

> <TPSA>
37.3

> <Rotatable_Bonds>
2

> <Lipinski_Violations>
0

> <Lipinski_Status>
Pass

> <Reported_Activity>
Antidiabetic

> <Assay_Target>
Metabolic targets

> <DOI_Reference>
10.3390/molecules28207202

> <Reference_Year>
2023

> <Compound_Class>
Iridoid

> <Compound_Superclass>
Terpenoid

> <Data_Source>
Isolation (Extraction)

> <Notes>
Root isolate.

> <Validation_Status>
Verified

> <Fraction_CSP3>
0.4

> <Ring_Count>
2

> <Aromatic_Ring_Count>
1

> <Heavy_Atom_Count>
17

> <Molar_Refractivity>
67.88730000000004

> <QED_Score>
0.7915548460481886

> <Veber_Status>
Pass

> <Ghose_Violations>
1

> <Ghose_Status>
Fail

$$$$
Carissone
  AfroDiabDB_Exporter

  0  0  0  0  0  0  0  0  0  0999 V2000
M  END
> <Compound_ID>
AFRO-0138

> <Compound_Name>
Carissone

> <Plant_Name>
Carissa edulis

> <Common_Name>
Natal plum

> <Plant_Family>
Apocynaceae

> <Plant_Part>
Roots, fruits, leaves

> <Country_of_Use>
Kenya

> <PubChem_CID>
11770473

> <Canonical_SMILES>
CC1=C2CC(C(C)(C)O)CCC2(C)CCC1=O

> <InChIKey>
ZWSWPQHKDLDIDL-UHFFFAOYSA-N

> <Molecular_Formula>
C15H24O2

> <Molecular_Weight>
236.3549999999999

> <LogP>
3.243100000000002

> <HBD>
1

> <HBA>
2

> <TPSA>
37.3

> <Rotatable_Bonds>
1

> <Lipinski_Violations>
0

> <Lipinski_Status>
Pass

> <Reported_Activity>
Antidiabetic

> <Assay_Target>
Metabolic targets

> <DOI_Reference>
10.3390/molecules28207202

> <Reference_Year>
2023

> <Compound_Class>
Eudesmane sesquiterpene

> <Compound_Superclass>
Terpenoid

> <Data_Source>
Isolation (Extraction)

> <Notes>
Bioactive sesquiterpene.

> <Validation_Status>
Verified

> <Fraction_CSP3>
0.8

> <Ring_Count>
2

> <Aromatic_Ring_Count>
0

> <Heavy_Atom_Count>
17

> <Molar_Refractivity>
68.68680000000005

> <QED_Score>
0.7585504883223518

> <Veber_Status>
Pass

> <Ghose_Violations>
1

> <Ghose_Status>
Fail

$$$$
Coniferaldehyde
  AfroDiabDB_Exporter

  0  0  0  0  0  0  0  0  0  0999 V2000
M  END
> <Compound_ID>
AFRO-0139

> <Compound_Name>
Coniferaldehyde

> <Plant_Name>
Carissa edulis

> <Common_Name>
Natal plum

> <Plant_Family>
Apocynaceae

> <Plant_Part>
Roots, fruits, leaves

> <Country_of_Use>
Kenya

> <PubChem_CID>
5280536

> <Canonical_SMILES>
COc1cc(C=CC=O)ccc1O

> <InChIKey>
DKZBBWMURDFHNE-UHFFFAOYSA-N

> <Molecular_Formula>
C10H10O3

> <Molecular_Weight>
178.187

> <LogP>
1.6129

> <HBD>
1

> <HBA>
3

> <TPSA>
46.53

> <Rotatable_Bonds>
3

> <Lipinski_Violations>
0

> <Lipinski_Status>
Pass

> <Reported_Activity>
Antidiabetic

> <Assay_Target>
Metabolic targets

> <DOI_Reference>
10.3390/molecules28207202

> <Reference_Year>
2023

> <Compound_Class>
Phenylpropanoid

> <Compound_Superclass>
Phenylpropanoid

> <Data_Source>
Isolation (Extraction)

> <Notes>
Phenolic isolate.

> <Validation_Status>
Verified

> <Fraction_CSP3>
0.1

> <Ring_Count>
1

> <Aromatic_Ring_Count>
1

> <Heavy_Atom_Count>
13

> <Molar_Refractivity>
49.75680000000002

> <QED_Score>
0.56465027245664

> <Veber_Status>
Pass

> <Ghose_Violations>
1

> <Ghose_Status>
Fail

$$$$
(-)-Nortrachelogenin
  AfroDiabDB_Exporter

  0  0  0  0  0  0  0  0  0  0999 V2000
M  END
> <Compound_ID>
AFRO-0140

> <Compound_Name>
(-)-Nortrachelogenin

> <Plant_Name>
Carissa edulis

> <Common_Name>
Natal plum

> <Plant_Family>
Apocynaceae

> <Plant_Part>
Roots, fruits, leaves

> <Country_of_Use>
Kenya

> <PubChem_CID>
394846

> <Canonical_SMILES>
COc1cc(CC2COC(=O)C2(O)Cc2ccc(O)c(OC)c2)ccc1O

> <InChIKey>
ZITBJWXLODLDRH-UHFFFAOYSA-N

> <Molecular_Formula>
C20H22O7

> <Molecular_Weight>
374.3890000000001

> <LogP>
1.804299999999999

> <HBD>
3

> <HBA>
7

> <TPSA>
105.45

> <Rotatable_Bonds>
6

> <Lipinski_Violations>
0

> <Lipinski_Status>
Pass

> <Reported_Activity>
Antidiabetic

> <Assay_Target>
Metabolic targets

> <DOI_Reference>
10.3390/molecules28207202

> <Reference_Year>
2023

> <Compound_Class>
Lignan

> <Compound_Superclass>
Phenylpropanoid

> <Data_Source>
Isolation (Extraction)

> <Notes>
Lignan isolate.

> <Validation_Status>
Verified

> <Fraction_CSP3>
0.35

> <Ring_Count>
3

> <Aromatic_Ring_Count>
2

> <Heavy_Atom_Count>
27

> <Molar_Refractivity>
96.12440000000004

> <QED_Score>
0.6622943571912767

> <Veber_Status>
Pass

> <Ghose_Violations>
0

> <Ghose_Status>
Pass

$$$$
Scopoletin
  AfroDiabDB_Exporter

  0  0  0  0  0  0  0  0  0  0999 V2000
M  END
> <Compound_ID>
AFRO-0141

> <Compound_Name>
Scopoletin

> <Plant_Name>
Carissa edulis

> <Common_Name>
Natal plum

> <Plant_Family>
Apocynaceae

> <Plant_Part>
Roots, fruits, leaves

> <Country_of_Use>
Kenya

> <PubChem_CID>
5280460

> <Canonical_SMILES>
COc1cc2ccc(=O)oc2cc1O

> <InChIKey>
RODXRVNMMDRFIK-UHFFFAOYSA-N

> <Molecular_Formula>
C10H8O4

> <Molecular_Weight>
192.17

> <LogP>
1.5072

> <HBD>
1

> <HBA>
4

> <TPSA>
59.67

> <Rotatable_Bonds>
1

> <Lipinski_Violations>
0

> <Lipinski_Status>
Pass

> <Reported_Activity>
Antidiabetic

> <Assay_Target>
Metabolic targets

> <DOI_Reference>
10.3390/molecules28207202

> <Reference_Year>
2023

> <Compound_Class>
Coumarin

> <Compound_Superclass>
Phenylpropanoid

> <Data_Source>
Isolation (Extraction)

> <Notes>
Bioactive coumarin.

> <Validation_Status>
Verified

> <Fraction_CSP3>
0.1

> <Ring_Count>
2

> <Aromatic_Ring_Count>
2

> <Heavy_Atom_Count>
14

> <Molar_Refractivity>
50.70080000000002

> <QED_Score>
0.6954481635264226

> <Veber_Status>
Pass

> <Ghose_Violations>
1

> <Ghose_Status>
Fail

$$$$
Isofraxidin
  AfroDiabDB_Exporter

  0  0  0  0  0  0  0  0  0  0999 V2000
M  END
> <Compound_ID>
AFRO-0142

> <Compound_Name>
Isofraxidin

> <Plant_Name>
Carissa edulis

> <Common_Name>
Natal plum

> <Plant_Family>
Apocynaceae

> <Plant_Part>
Roots, fruits, leaves

> <Country_of_Use>
Kenya

> <PubChem_CID>
5318565

> <Canonical_SMILES>
COc1cc2ccc(=O)oc2c(OC)c1O

> <InChIKey>
HOEVRHHMDJKUMZ-UHFFFAOYSA-N

> <Molecular_Formula>
C11H10O5

> <Molecular_Weight>
222.196

> <LogP>
1.5158

> <HBD>
1

> <HBA>
5

> <TPSA>
68.9

> <Rotatable_Bonds>
2

> <Lipinski_Violations>
0

> <Lipinski_Status>
Pass

> <Reported_Activity>
Antidiabetic

> <Assay_Target>
Metabolic targets

> <DOI_Reference>
10.3390/molecules28207202

> <Reference_Year>
2023

> <Compound_Class>
Coumarin

> <Compound_Superclass>
Phenylpropanoid

> <Data_Source>
Isolation (Extraction)

> <Notes>
Bioactive coumarin.

> <Validation_Status>
Verified

> <Fraction_CSP3>
0.1818181818181818

> <Ring_Count>
2

> <Aromatic_Ring_Count>
2

> <Heavy_Atom_Count>
16

> <Molar_Refractivity>
57.25280000000002

> <QED_Score>
0.7798629135906918

> <Veber_Status>
Pass

> <Ghose_Violations>
1

> <Ghose_Status>
Fail

$$$$
(+)-Lariciresinol
  AfroDiabDB_Exporter

  0  0  0  0  0  0  0  0  0  0999 V2000
M  END
> <Compound_ID>
AFRO-0143

> <Compound_Name>
(+)-Lariciresinol

> <Plant_Name>
Carissa edulis

> <Common_Name>
Natal plum

> <Plant_Family>
Apocynaceae

> <Plant_Part>
Roots, fruits, leaves

> <Country_of_Use>
Kenya

> <PubChem_CID>
332427

> <Canonical_SMILES>
COc1cc(CC2COC(c3ccc(O)c(OC)c3)C2CO)ccc1O

> <InChIKey>
MHXCIKYXNYCMHY-UHFFFAOYSA-N

> <Molecular_Formula>
C20H24O6

> <Molecular_Weight>
360.4060000000001

> <LogP>
2.653700000000001

> <HBD>
3

> <HBA>
6

> <TPSA>
88.38000000000001

> <Rotatable_Bonds>
6

> <Lipinski_Violations>
0

> <Lipinski_Status>
Pass

> <Reported_Activity>
Antidiabetic

> <Assay_Target>
Metabolic targets

> <DOI_Reference>
10.3390/molecules28207202

> <Reference_Year>
2023

> <Compound_Class>
Lignan

> <Compound_Superclass>
Phenylpropanoid

> <Data_Source>
Isolation (Extraction)

> <Notes>
Lignan isolate.

> <Validation_Status>
Verified

> <Fraction_CSP3>
0.4

> <Ring_Count>
3

> <Aromatic_Ring_Count>
2

> <Heavy_Atom_Count>
26

> <Molar_Refractivity>
95.78040000000004

> <QED_Score>
0.733983920486042

> <Veber_Status>
Pass

> <Ghose_Violations>
0

> <Ghose_Status>
Pass

$$$$
Carissanol
  AfroDiabDB_Exporter

  0  0  0  0  0  0  0  0  0  0999 V2000
M  END
> <Compound_ID>
AFRO-0144

> <Compound_Name>
Carissanol

> <Plant_Name>
Carissa edulis

> <Common_Name>
Natal plum

> <Plant_Family>
Apocynaceae

> <Plant_Part>
Roots, fruits, leaves

> <Country_of_Use>
Kenya

> <PubChem_CID>
340931

> <Canonical_SMILES>
COc1cc(CC2COC(O)C2(O)Cc2ccc(O)c(OC)c2)ccc1O

> <InChIKey>
LHQJDCXEZZAFKD-UHFFFAOYSA-N

> <Molecular_Formula>
C20H24O7

> <Molecular_Weight>
376.4050000000001

> <LogP>
1.5961

> <HBD>
4

> <HBA>
7

> <TPSA>
108.61

> <Rotatable_Bonds>
6

> <Lipinski_Violations>
0

> <Lipinski_Status>
Pass

> <Reported_Activity>
Antidiabetic

> <Assay_Target>
Metabolic targets

> <DOI_Reference>
10.3390/molecules28207202

> <Reference_Year>
2023

> <Compound_Class>
Lignan

> <Compound_Superclass>
Phenylpropanoid

> <Data_Source>
Isolation (Extraction)

> <Notes>
Lignan isolate.

> <Validation_Status>
Verified

> <Fraction_CSP3>
0.4

> <Ring_Count>
3

> <Aromatic_Ring_Count>
2

> <Heavy_Atom_Count>
27

> <Molar_Refractivity>
97.12420000000003

> <QED_Score>
0.6062805543678483

> <Veber_Status>
Pass

> <Ghose_Violations>
0

> <Ghose_Status>
Pass

$$$$
Carinol
  AfroDiabDB_Exporter

  0  0  0  0  0  0  0  0  0  0999 V2000
M  END
> <Compound_ID>
AFRO-0145

> <Compound_Name>
Carinol

> <Plant_Name>
Carissa edulis

> <Common_Name>
Natal plum

> <Plant_Family>
Apocynaceae

> <Plant_Part>
Roots, fruits, leaves

> <Country_of_Use>
Kenya

> <PubChem_CID>
586373

> <Canonical_SMILES>
COc1cc(CC(CO)C(O)(CO)Cc2ccc(O)c(OC)c2)ccc1O

> <InChIKey>
INPPVVSEQRZCLJ-UHFFFAOYSA-N

> <Molecular_Formula>
C20H26O7

> <Molecular_Weight>
378.4210000000001

> <LogP>
1.2321

> <HBD>
5

> <HBA>
7

> <TPSA>
119.61

> <Rotatable_Bonds>
9

> <Lipinski_Violations>
0

> <Lipinski_Status>
Pass

> <Reported_Activity>
Antidiabetic

> <Assay_Target>
Metabolic targets

> <DOI_Reference>
10.3390/molecules28207202

> <Reference_Year>
2023

> <Compound_Class>
Lignan

> <Compound_Superclass>
Phenylpropanoid

> <Data_Source>
Isolation (Extraction)

> <Notes>
Lignan isolate.

> <Validation_Status>
Verified

> <Fraction_CSP3>
0.4

> <Ring_Count>
2

> <Aromatic_Ring_Count>
2

> <Heavy_Atom_Count>
27

> <Molar_Refractivity>
99.33700000000003

> <QED_Score>
0.445153360813675

> <Veber_Status>
Pass

> <Ghose_Violations>
0

> <Ghose_Status>
Pass

$$$$
Lupeol
  AfroDiabDB_Exporter

  0  0  0  0  0  0  0  0  0  0999 V2000
M  END
> <Compound_ID>
AFRO-0146

> <Compound_Name>
Lupeol

> <Plant_Name>
Carissa edulis

> <Common_Name>
Natal plum

> <Plant_Family>
Apocynaceae

> <Plant_Part>
Roots, fruits, leaves

> <Country_of_Use>
Kenya

> <PubChem_CID>
259846

> <Canonical_SMILES>
C=C(C)C1CCC2(C)CCC3(C)C(CCC4C5(C)CCC(O)C(C)(C)C5CCC43C)C12

> <InChIKey>
MQYXUWHLBZFQQO-UHFFFAOYSA-N

> <Molecular_Formula>
C30H50O

> <Molecular_Weight>
426.7290000000003

> <LogP>
8.02480000000001

> <HBD>
1

> <HBA>
1

> <TPSA>
20.23

> <Rotatable_Bonds>
1

> <Lipinski_Violations>
1

> <Lipinski_Status>
Pass

> <Reported_Activity>
Antidiabetic / Cytotoxic

> <Assay_Target>
Metabolic pathways

> <DOI_Reference>
10.3390/molecules28207202

> <Reference_Year>
2023

> <Compound_Class>
Pentacyclic triterpenoid

> <Compound_Superclass>
Terpenoid

> <Data_Source>
Isolation (Extraction)

> <Notes>
Bioactive triterpene.

> <Validation_Status>
Verified

> <Fraction_CSP3>
0.9333333333333333

> <Ring_Count>
5

> <Aromatic_Ring_Count>
0

> <Heavy_Atom_Count>
31

> <Molar_Refractivity>
130.6498000000001

> <QED_Score>
0.4207223429654396

> <Veber_Status>
Pass

> <Ghose_Violations>
2

> <Ghose_Status>
Fail

$$$$
Oleuropein
  AfroDiabDB_Exporter

  0  0  0  0  0  0  0  0  0  0999 V2000
M  END
> <Compound_ID>
AFRO-0147

> <Compound_Name>
Oleuropein

> <Plant_Name>
Carissa edulis

> <Common_Name>
Natal plum

> <Plant_Family>
Apocynaceae

> <Plant_Part>
Roots, fruits, leaves

> <Country_of_Use>
Kenya

> <PubChem_CID>
5281544

> <Canonical_SMILES>
CC=C1C(OC2OC(CO)C(O)C(O)C2O)OC=C(C(=O)OC)C1CC(=O)OCCc1ccc(O)c(O)c1

> <InChIKey>
RFWGABANNQMHMZ-UHFFFAOYSA-N

> <Molecular_Formula>
C25H32O13

> <Molecular_Weight>
540.5180000000005

> <LogP>
-0.6342000000000009

> <HBD>
6

> <HBA>
13

> <TPSA>
201.67

> <Rotatable_Bonds>
9

> <Lipinski_Violations>
3

> <Lipinski_Status>
Fail

> <Reported_Activity>
Antidiabetic

> <Assay_Target>
Metabolic targets

> <DOI_Reference>
10.3390/molecules28207202

> <Reference_Year>
2023

> <Compound_Class>
Secoiridoid glucoside

> <Compound_Superclass>
Terpenoid

> <Data_Source>
Isolation (Extraction)

> <Notes>
Bioactive glycoside.

> <Validation_Status>
Verified

> <Fraction_CSP3>
0.52

> <Ring_Count>
3

> <Aromatic_Ring_Count>
1

> <Heavy_Atom_Count>
38

> <Molar_Refractivity>
126.1228

> <QED_Score>
0.1313664267006285

> <Veber_Status>
Fail

> <Ghose_Violations>
2

> <Ghose_Status>
Fail

$$$$
Rhamnetin-3-O-β-D-glucopyranoside
  AfroDiabDB_Exporter

  0  0  0  0  0  0  0  0  0  0999 V2000
M  END
> <Compound_ID>
AFRO-0148

> <Compound_Name>
Rhamnetin-3-O-β-D-glucopyranoside

> <Plant_Name>
Carissa edulis

> <Common_Name>
Natal plum

> <Plant_Family>
Apocynaceae

> <Plant_Part>
Roots, fruits, leaves

> <Country_of_Use>
Kenya

> <PubChem_CID>
14704553

> <Canonical_SMILES>
COc1cc(O)c2c(=O)c(OC3OC(CO)C(O)C(O)C3O)c(-c3ccc(O)c(O)c3)oc2c1

> <InChIKey>
PHEWILLIAJUBQE-UHFFFAOYSA-N

> <Molecular_Formula>
C22H22O12

> <Molecular_Weight>
478.4060000000002

> <LogP>
-0.2358999999999999

> <HBD>
7

> <HBA>
12

> <TPSA>
199.51

> <Rotatable_Bonds>
5

> <Lipinski_Violations>
2

> <Lipinski_Status>
Fail

> <Reported_Activity>
Antidiabetic

> <Assay_Target>
Metabolic targets

> <DOI_Reference>
10.3390/molecules28207202

> <Reference_Year>
2023

> <Compound_Class>
Flavonoid glycoside

> <Compound_Superclass>
Flavonoid

> <Data_Source>
Isolation (Extraction)

> <Notes>
Flavonol glycoside.

> <Validation_Status>
Verified

> <Fraction_CSP3>
0.3181818181818182

> <Ring_Count>
4

> <Aromatic_Ring_Count>
3

> <Heavy_Atom_Count>
34

> <Molar_Refractivity>
113.8616

> <QED_Score>
0.237899854742278

> <Veber_Status>
Fail

> <Ghose_Violations>
0

> <Ghose_Status>
Pass

$$$$
Isorhamnetin-3-O-β-D-glucopyranoside
  AfroDiabDB_Exporter

  0  0  0  0  0  0  0  0  0  0999 V2000
M  END
> <Compound_ID>
AFRO-0149

> <Compound_Name>
Isorhamnetin-3-O-β-D-glucopyranoside

> <Plant_Name>
Carissa edulis

> <Common_Name>
Natal plum

> <Plant_Family>
Apocynaceae

> <Plant_Part>
Roots, fruits, leaves

> <Country_of_Use>
Kenya

> <PubChem_CID>
13245586

> <Canonical_SMILES>
COc1cc(-c2oc3cc(O)cc(O)c3c(=O)c2OC2OC(CO)C(O)C(O)C2O)ccc1O

> <InChIKey>
CQLRUIIRRZYHHS-UHFFFAOYSA-N

> <Molecular_Formula>
C22H22O12

> <Molecular_Weight>
478.4060000000001

> <LogP>
-0.2358999999999998

> <HBD>
7

> <HBA>
12

> <TPSA>
199.51

> <Rotatable_Bonds>
5

> <Lipinski_Violations>
2

> <Lipinski_Status>
Fail

> <Reported_Activity>
Antidiabetic

> <Assay_Target>
Metabolic targets

> <DOI_Reference>
10.3390/molecules28207202

> <Reference_Year>
2023

> <Compound_Class>
Flavonoid glycoside

> <Compound_Superclass>
Flavonoid

> <Data_Source>
Isolation (Extraction)

> <Notes>
Flavonol glycoside.

> <Validation_Status>
Verified

> <Fraction_CSP3>
0.3181818181818182

> <Ring_Count>
4

> <Aromatic_Ring_Count>
3

> <Heavy_Atom_Count>
34

> <Molar_Refractivity>
113.8616

> <QED_Score>
0.2543131326886132

> <Veber_Status>
Fail

> <Ghose_Violations>
0

> <Ghose_Status>
Pass

$$$$
(+)-Butyl-O-α-L-rhamnoside
  AfroDiabDB_Exporter

  0  0  0  0  0  0  0  0  0  0999 V2000
M  END
> <Compound_ID>
AFRO-0150

> <Compound_Name>
(+)-Butyl-O-α-L-rhamnoside

> <Plant_Name>
Carissa edulis

> <Common_Name>
Natal plum

> <Plant_Family>
Apocynaceae

> <Plant_Part>
Roots, fruits, leaves

> <Country_of_Use>
Kenya

> <PubChem_CID>
13059942

> <Canonical_SMILES>
CCCCOC1OC(C)C(O)C(O)C1O

> <InChIKey>
SMKNLYABELUZSL-UHFFFAOYSA-N

> <Molecular_Formula>
C10H20O5

> <Molecular_Weight>
220.265

> <LogP>
-0.3694000000000002

> <HBD>
3

> <HBA>
5

> <TPSA>
79.15

> <Rotatable_Bonds>
4

> <Lipinski_Violations>
0

> <Lipinski_Status>
Pass

> <Reported_Activity>
Antidiabetic

> <Assay_Target>
Metabolic targets

> <DOI_Reference>
10.3390/molecules28207202

> <Reference_Year>
2023

> <Compound_Class>
Glycoside

> <Compound_Superclass>
Glycoside

> <Data_Source>
Isolation (Extraction)

> <Notes>
Glycosidic derivative.

> <Validation_Status>
Verified

> <Fraction_CSP3>
1.0

> <Ring_Count>
1

> <Aromatic_Ring_Count>
0

> <Heavy_Atom_Count>
15

> <Molar_Refractivity>
53.21540000000005

> <QED_Score>
0.5633503980821789

> <Veber_Status>
Pass

> <Ghose_Violations>
1

> <Ghose_Status>
Fail

$$$$
Peonidin-3-rutinoside
  AfroDiabDB_Exporter

  0  0  0  0  0  0  0  0  0  0999 V2000
M  END
> <Compound_ID>
AFRO-0151

> <Compound_Name>
Peonidin-3-rutinoside

> <Plant_Name>
Carissa edulis

> <Common_Name>
Natal plum

> <Plant_Family>
Apocynaceae

> <Plant_Part>
Roots, fruits, leaves

> <Country_of_Use>
Kenya

> <PubChem_CID>
90470731

> <Canonical_SMILES>
COc1cc(-c2[o+]c3cc(O)cc(O)c3cc2OC2OC(COC3OC(C)C(O)C(O)C3O)C(O)C(O)C2O)ccc1O

> <InChIKey>
ONQVTPMFYSRRLL-UHFFFAOYSA-O

> <Molecular_Formula>
C28H33ClO15

> <Molecular_Weight>
609.5570000000004

> <LogP>
-0.4632000000000006

> <HBD>
9

> <HBA>
14

> <TPSA>
239.52

> <Rotatable_Bonds>
7

> <Lipinski_Violations>
3

> <Lipinski_Status>
Fail

> <Reported_Activity>
Antidiabetic

> <Assay_Target>
Metabolic targets

> <DOI_Reference>
10.3390/molecules28207202

> <Reference_Year>
2023

> <Compound_Class>
Anthocyanin

> <Compound_Superclass>
Flavonoid

> <Data_Source>
Isolation (Extraction)

> <Notes>
Fruit anthocyanin.

> <Validation_Status>
Verified

> <Fraction_CSP3>
0.4642857142857143

> <Ring_Count>
5

> <Aromatic_Ring_Count>
3

> <Heavy_Atom_Count>
43

> <Molar_Refractivity>
143.2202

> <QED_Score>
0.1539930168067867

> <Veber_Status>
Fail

> <Ghose_Violations>
3

> <Ghose_Status>
Fail

$$$$
Guaiacylglycerol
  AfroDiabDB_Exporter

  0  0  0  0  0  0  0  0  0  0999 V2000
M  END
> <Compound_ID>
AFRO-0152

> <Compound_Name>
Guaiacylglycerol

> <Plant_Name>
Carissa edulis

> <Common_Name>
Natal plum

> <Plant_Family>
Apocynaceae

> <Plant_Part>
Roots, fruits, leaves

> <Country_of_Use>
Kenya

> <PubChem_CID>
14579

> <Canonical_SMILES>
COc1cc(C(O)C(O)CO)ccc1O

> <InChIKey>
LSKFUSLVUZISST-UHFFFAOYSA-N

> <Molecular_Formula>
C10H14O5

> <Molecular_Weight>
214.217

> <LogP>
-0.2126

> <HBD>
4

> <HBA>
5

> <TPSA>
90.15

> <Rotatable_Bonds>
4

> <Lipinski_Violations>
0

> <Lipinski_Status>
Pass

> <Reported_Activity>
Antidiabetic

> <Assay_Target>
Metabolic targets

> <DOI_Reference>
10.3390/molecules28207202

> <Reference_Year>
2023

> <Compound_Class>
Phenylpropanoid

> <Compound_Superclass>
Phenylpropanoid

> <Data_Source>
Isolation (Extraction)

> <Notes>
Root bark isolate.

> <Validation_Status>
Verified

> <Fraction_CSP3>
0.4

> <Ring_Count>
1

> <Aromatic_Ring_Count>
1

> <Heavy_Atom_Count>
15

> <Molar_Refractivity>
52.71120000000003

> <QED_Score>
0.5564070535227745

> <Veber_Status>
Pass

> <Ghose_Violations>
1

> <Ghose_Status>
Fail

$$$$
1-(1-Hydroxyethyl)-2-(6-(1-hydroxyethyl)phenoxy)benzene
  AfroDiabDB_Exporter

  0  0  0  0  0  0  0  0  0  0999 V2000
M  END
> <Compound_ID>
AFRO-0153

> <Compound_Name>
1-(1-Hydroxyethyl)-2-(6-(1-hydroxyethyl)phenoxy)benzene

> <Plant_Name>
Carissa edulis

> <Common_Name>
Natal plum

> <Plant_Family>
Apocynaceae

> <Plant_Part>
Roots, fruits, leaves

> <Country_of_Use>
Kenya

> <PubChem_CID>
18508382

> <Canonical_SMILES>
CC(O)c1ccccc1Oc1ccccc1C(C)O

> <InChIKey>
MHLAWJQCXFMYLA-UHFFFAOYSA-N

> <Molecular_Formula>
C16H18O3

> <Molecular_Weight>
258.317

> <LogP>
3.585500000000003

> <HBD>
2

> <HBA>
3

> <TPSA>
49.69

> <Rotatable_Bonds>
4

> <Lipinski_Violations>
0

> <Lipinski_Status>
Pass

> <Reported_Activity>
Antidiabetic

> <Assay_Target>
Metabolic targets

> <DOI_Reference>
10.3390/molecules28207202

> <Reference_Year>
2023

> <Compound_Class>
Diphenyl ether

> <Compound_Superclass>
Miscellaneous

> <Data_Source>
Isolation (Extraction)

> <Notes>
Root bark isolate.

> <Validation_Status>
Verified

> <Fraction_CSP3>
0.25

> <Ring_Count>
2

> <Aromatic_Ring_Count>
2

> <Heavy_Atom_Count>
19

> <Molar_Refractivity>
74.22560000000004

> <QED_Score>
0.8807753897449372

> <Veber_Status>
Pass

> <Ghose_Violations>
1

> <Ghose_Status>
Fail

$$$$
3,4-Dimethoxyphenyl-2-O-β-D-apiofuranosyl-(1→2)-β-D-glucopyranoside
  AfroDiabDB_Exporter

  0  0  0  0  0  0  0  0  0  0999 V2000
M  END
> <Compound_ID>
AFRO-0154

> <Compound_Name>
3,4-Dimethoxyphenyl-2-O-β-D-apiofuranosyl-(1→2)-β-D-glucopyranoside

> <Plant_Name>
Carissa edulis

> <Common_Name>
Natal plum

> <Plant_Family>
Apocynaceae

> <Plant_Part>
Roots, fruits, leaves

> <Country_of_Use>
Kenya

> <PubChem_CID>
163040208

> <Canonical_SMILES>
COc1ccc(OC2OC(CO)C(O)C(O)C2OC2OCC(O)(CO)C2O)cc1OC

> <InChIKey>
RUTRSEVLUYAPSN-UHFFFAOYSA-N

> <Molecular_Formula>
C19H28O12

> <Molecular_Weight>
448.4210000000003

> <LogP>
-2.652599999999998

> <HBD>
6

> <HBA>
12

> <TPSA>
176.76

> <Rotatable_Bonds>
8

> <Lipinski_Violations>
2

> <Lipinski_Status>
Fail

> <Reported_Activity>
Antidiabetic

> <Assay_Target>
Metabolic targets

> <DOI_Reference>
10.3390/molecules28207202

> <Reference_Year>
2023

> <Compound_Class>
Phenolic glycoside

> <Compound_Superclass>
Phenolic Compound

> <Data_Source>
Isolation (Extraction)

> <Notes>
Root bark isolate.

> <Validation_Status>
Verified

> <Fraction_CSP3>
0.6842105263157895

> <Ring_Count>
3

> <Aromatic_Ring_Count>
1

> <Heavy_Atom_Count>
31

> <Molar_Refractivity>
100.5898

> <QED_Score>
0.2437969326599407

> <Veber_Status>
Fail

> <Ghose_Violations>
1

> <Ghose_Status>
Fail

$$$$
Dovyalicin E
  AfroDiabDB_Exporter

  0  0  0  0  0  0  0  0  0  0999 V2000
M  END
> <Compound_ID>
AFRO-0155

> <Compound_Name>
Dovyalicin E

> <Plant_Name>
Dovyalis abyssinica

> <Common_Name>
African apricot

> <Plant_Family>
Salicaceae

> <Plant_Part>
Leaves, twigs, roots

> <Country_of_Use>
Kenya

> <PubChem_CID>
16086546

> <Canonical_SMILES>
O=C(NCCCCN1CCCNC(c2ccccc2)CC1=O)c1ccccc1

> <InChIKey>
XMSVRBIVBUEBCF-UHFFFAOYSA-N

> <Molecular_Formula>
C23H29N3O2

> <Molecular_Weight>
379.5040000000002

> <LogP>
3.149900000000001

> <HBD>
2

> <HBA>
3

> <TPSA>
61.44

> <Rotatable_Bonds>
7

> <Lipinski_Violations>
0

> <Lipinski_Status>
Pass

> <Reported_Activity>
Antidiabetic

> <Assay_Target>
Cellular targets

> <DOI_Reference>
10.3390/molecules28207202

> <Reference_Year>
2023

> <Compound_Class>
Spermidine alkaloid

> <Compound_Superclass>
Alkaloid

> <Data_Source>
Isolation (Extraction)

> <Notes>
Leaf and twig alkaloid.

> <Validation_Status>
Verified

> <Fraction_CSP3>
0.391304347826087

> <Ring_Count>
3

> <Aromatic_Ring_Count>
2

> <Heavy_Atom_Count>
28

> <Molar_Refractivity>
111.0089

> <QED_Score>
0.7267357841299876

> <Veber_Status>
Pass

> <Ghose_Violations>
0

> <Ghose_Status>
Pass

$$$$
N-(4-Benzoylaminobutyl)-N-(3-dimethylaminopropyl)-3-phenylpropenamide
  AfroDiabDB_Exporter

  0  0  0  0  0  0  0  0  0  0999 V2000
M  END
> <Compound_ID>
AFRO-0156

> <Compound_Name>
N-(4-Benzoylaminobutyl)-N-(3-dimethylaminopropyl)-3-phenylpropenamide

> <Plant_Name>
Dovyalis abyssinica

> <Common_Name>
African apricot

> <Plant_Family>
Salicaceae

> <Plant_Part>
Leaves, twigs, roots

> <Country_of_Use>
Kenya

> <PubChem_CID>
16086548

> <Canonical_SMILES>
CN(C)CCCN(CCCCNC(=O)c1ccccc1)C(=O)C=Cc1ccccc1

> <InChIKey>
VMZGZQGCIBFDJR-UHFFFAOYSA-N

> <Molecular_Formula>
C25H33N3O2

> <Molecular_Weight>
407.5580000000001

> <LogP>
3.690300000000001

> <HBD>
1

> <HBA>
3

> <TPSA>
52.65

> <Rotatable_Bonds>
12

> <Lipinski_Violations>
0

> <Lipinski_Status>
Pass

> <Reported_Activity>
Antidiabetic

> <Assay_Target>
Cellular targets

> <DOI_Reference>
10.3390/molecules28207202

> <Reference_Year>
2023

> <Compound_Class>
Spermidine alkaloid

> <Compound_Superclass>
Alkaloid

> <Data_Source>
Isolation (Extraction)

> <Notes>
Alkaloid isolate.

> <Validation_Status>
Verified

> <Fraction_CSP3>
0.36

> <Ring_Count>
2

> <Aromatic_Ring_Count>
2

> <Heavy_Atom_Count>
30

> <Molar_Refractivity>
123.2362

> <QED_Score>
0.4312462027244826

> <Veber_Status>
Fail

> <Ghose_Violations>
0

> <Ghose_Status>
Pass

$$$$
Methyl 1-hydroxy-6-oxocyclohex-2-enecarboxylate
  AfroDiabDB_Exporter

  0  0  0  0  0  0  0  0  0  0999 V2000
M  END
> <Compound_ID>
AFRO-0157

> <Compound_Name>
Methyl 1-hydroxy-6-oxocyclohex-2-enecarboxylate

> <Plant_Name>
Dovyalis abyssinica

> <Common_Name>
African apricot

> <Plant_Family>
Salicaceae

> <Plant_Part>
Leaves, twigs, roots

> <Country_of_Use>
Kenya

> <PubChem_CID>
23649674

> <Canonical_SMILES>
COC(=O)C1(O)C=CCCC1=O

> <InChIKey>
IJZJQOKHINBQCY-UHFFFAOYSA-N

> <Molecular_Formula>
C8H10O4

> <Molecular_Weight>
170.164

> <LogP>
-0.1904000000000001

> <HBD>
1

> <HBA>
4

> <TPSA>
63.6

> <Rotatable_Bonds>
1

> <Lipinski_Violations>
0

> <Lipinski_Status>
Pass

> <Reported_Activity>
Antidiabetic

> <Assay_Target>
Metabolic targets

> <DOI_Reference>
10.3390/molecules28207202

> <Reference_Year>
2023

> <Compound_Class>
Cyclohexene derivative

> <Compound_Superclass>
Terpenoid

> <Data_Source>
Isolation (Extraction)

> <Notes>
Plant isolate.

> <Validation_Status>
Verified

> <Fraction_CSP3>
0.5

> <Ring_Count>
1

> <Aromatic_Ring_Count>
0

> <Heavy_Atom_Count>
12

> <Molar_Refractivity>
40.34680000000002

> <QED_Score>
0.3363251086199379

> <Veber_Status>
Pass

> <Ghose_Violations>
1

> <Ghose_Status>
Fail

$$$$
4-Hydroxy-2-(1-hydroxy-6-oxocyclohex-2-enecarbonyloxymethyl)phenyl 2-O-benzoyl-α-D-glucopyranoside
  AfroDiabDB_Exporter

  0  0  0  0  0  0  0  0  0  0999 V2000
M  END
> <Compound_ID>
AFRO-0158

> <Compound_Name>
4-Hydroxy-2-(1-hydroxy-6-oxocyclohex-2-enecarbonyloxymethyl)phenyl 2-O-benzoyl-α-D-glucopyranoside

> <Plant_Name>
Dovyalis abyssinica

> <Common_Name>
African apricot

> <Plant_Family>
Salicaceae

> <Plant_Part>
Leaves, twigs, roots

> <Country_of_Use>
Kenya

> <PubChem_CID>
73238325

> <Canonical_SMILES>
O=C(OC1C(Oc2ccc(O)cc2COC(=O)C2(O)C=CCCC2=O)OC(CO)C(O)C1O)c1ccccc1

> <InChIKey>
MDHRUEIHSUOCAT-UHFFFAOYSA-N

> <Molecular_Formula>
C27H28O12

> <Molecular_Weight>
544.5090000000002

> <LogP>
0.1289999999999993

> <HBD>
5

> <HBA>
12

> <TPSA>
189.28

> <Rotatable_Bonds>
8

> <Lipinski_Violations>
2

> <Lipinski_Status>
Fail

> <Reported_Activity>
Antidiabetic

> <Assay_Target>
Metabolic targets

> <DOI_Reference>
10.3390/molecules28207202

> <Reference_Year>
2023

> <Compound_Class>
Phenolic glucoside

> <Compound_Superclass>
Phenolic Compound

> <Data_Source>
Isolation (Extraction)

> <Notes>
Plant isolate.

> <Validation_Status>
Verified

> <Fraction_CSP3>
0.3703703703703703

> <Ring_Count>
4

> <Aromatic_Ring_Count>
2

> <Heavy_Atom_Count>
39

> <Molar_Refractivity>
130.2675

> <QED_Score>
0.1718410687739062

> <Veber_Status>
Fail

> <Ghose_Violations>
2

> <Ghose_Status>
Fail

$$$$
Benzoic acid
  AfroDiabDB_Exporter

  0  0  0  0  0  0  0  0  0  0999 V2000
M  END
> <Compound_ID>
AFRO-0159

> <Compound_Name>
Benzoic acid

> <Plant_Name>
Dovyalis abyssinica

> <Common_Name>
African apricot

> <Plant_Family>
Salicaceae

> <Plant_Part>
Leaves, twigs, roots

> <Country_of_Use>
Kenya

> <PubChem_CID>
243

> <Canonical_SMILES>
O=C(O)c1ccccc1

> <InChIKey>
WPYMKLBDIGXBTP-UHFFFAOYSA-N

> <Molecular_Formula>
C7H6O2

> <Molecular_Weight>
122.123

> <LogP>
1.3848

> <HBD>
1

> <HBA>
1

> <TPSA>
37.3

> <Rotatable_Bonds>
1

> <Lipinski_Violations>
0

> <Lipinski_Status>
Pass

> <Reported_Activity>
Antidiabetic

> <Assay_Target>
Metabolic targets

> <DOI_Reference>
10.3390/molecules28207202

> <Reference_Year>
2023

> <Compound_Class>
Aromatic carboxylic acid

> <Compound_Superclass>
Phenolic Compound

> <Data_Source>
Isolation (Extraction)

> <Notes>
Plant isolate.

> <Validation_Status>
Verified

> <Fraction_CSP3>
0.0

> <Ring_Count>
1

> <Aromatic_Ring_Count>
1

> <Heavy_Atom_Count>
9

> <Molar_Refractivity>
33.4013

> <QED_Score>
0.6106035394285076

> <Veber_Status>
Pass

> <Ghose_Violations>
3

> <Ghose_Status>
Fail

$$$$
Tremulacin
  AfroDiabDB_Exporter

  0  0  0  0  0  0  0  0  0  0999 V2000
M  END
> <Compound_ID>
AFRO-0160

> <Compound_Name>
Tremulacin

> <Plant_Name>
Dovyalis abyssinica

> <Common_Name>
African apricot

> <Plant_Family>
Salicaceae

> <Plant_Part>
Leaves, twigs, roots

> <Country_of_Use>
Kenya

> <PubChem_CID>
442544

> <Canonical_SMILES>
O=C(OC1C(Oc2ccccc2COC(=O)C2(O)C=CCCC2=O)OC(CO)C(O)C1O)c1ccccc1

> <InChIKey>
RCKCYCDBDYUIGM-UHFFFAOYSA-N

> <Molecular_Formula>
C27H28O11

> <Molecular_Weight>
528.5100000000002

> <LogP>
0.4233999999999997

> <HBD>
4

> <HBA>
11

> <TPSA>
169.05

> <Rotatable_Bonds>
8

> <Lipinski_Violations>
2

> <Lipinski_Status>
Fail

> <Reported_Activity>
Antidiabetic

> <Assay_Target>
Metabolic targets

> <DOI_Reference>
10.3390/molecules28207202

> <Reference_Year>
2023

> <Compound_Class>
Phenolic glucoside

> <Compound_Superclass>
Phenolic Compound

> <Data_Source>
Isolation (Extraction)

> <Notes>
Bioactive glucoside.

> <Validation_Status>
Verified

> <Fraction_CSP3>
0.3703703703703703

> <Ring_Count>
4

> <Aromatic_Ring_Count>
2

> <Heavy_Atom_Count>
38

> <Molar_Refractivity>
128.6027

> <QED_Score>
0.2128328726883444

> <Veber_Status>
Fail

> <Ghose_Violations>
1

> <Ghose_Status>
Fail

$$$$
Betulinic acid
  AfroDiabDB_Exporter

  0  0  0  0  0  0  0  0  0  0999 V2000
M  END
> <Compound_ID>
AFRO-0161

> <Compound_Name>
Betulinic acid

> <Plant_Name>
Dovyalis abyssinica

> <Common_Name>
African apricot

> <Plant_Family>
Salicaceae

> <Plant_Part>
Leaves, twigs, roots

> <Country_of_Use>
Kenya

> <PubChem_CID>
64971

> <Canonical_SMILES>
C=C(C)C1CCC2(C(=O)O)CCC3(C)C(CCC4C5(C)CCC(O)C(C)(C)C5CCC43C)C12

> <InChIKey>
QGJZLNKBHJESQX-UHFFFAOYSA-N

> <Molecular_Formula>
C30H48O3

> <Molecular_Weight>
456.7110000000003

> <LogP>
7.089500000000009

> <HBD>
2

> <HBA>
2

> <TPSA>
57.53

> <Rotatable_Bonds>
2

> <Lipinski_Violations>
1

> <Lipinski_Status>
Pass

> <Reported_Activity>
Antidiabetic

> <Assay_Target>
Metabolic targets

> <DOI_Reference>
10.3390/molecules28207202

> <Reference_Year>
2023

> <Compound_Class>
Lupane triterpenoid

> <Compound_Superclass>
Terpenoid

> <Data_Source>
Isolation (Extraction)

> <Notes>
Active triterpene.

> <Validation_Status>
Verified

> <Fraction_CSP3>
0.9

> <Ring_Count>
5

> <Aromatic_Ring_Count>
0

> <Heavy_Atom_Count>
33

> <Molar_Refractivity>
132.6116

> <QED_Score>
0.4360977414316997

> <Veber_Status>
Pass

> <Ghose_Violations>
2

> <Ghose_Status>
Fail

$$$$
Dihydrooroxylin A
  AfroDiabDB_Exporter

  0  0  0  0  0  0  0  0  0  0999 V2000
M  END
> <Compound_ID>
AFRO-0162

> <Compound_Name>
Dihydrooroxylin A

> <Plant_Name>
Dracaena steudneri

> <Common_Name>
Dragon tree

> <Plant_Family>
Asparagaceae

> <Plant_Part>
Leaves, fruits

> <Country_of_Use>
Kenya

> <PubChem_CID>
177032

> <Canonical_SMILES>
COc1c(O)cc2c(c1O)C(=O)CC(c1ccccc1)O2

> <InChIKey>
QUAPPCXFYKSDSV-UHFFFAOYSA-N

> <Molecular_Formula>
C16H14O5

> <Molecular_Weight>
286.283

> <LogP>
2.812900000000001

> <HBD>
2

> <HBA>
5

> <TPSA>
75.99

> <Rotatable_Bonds>
2

> <Lipinski_Violations>
0

> <Lipinski_Status>
Pass

> <Reported_Activity>
Inhibition of proinflammatory cytokines

> <Assay_Target>
Proinflammatory cytokines

> <DOI_Reference>
10.3390/molecules28207202

> <Reference_Year>
2023

> <Compound_Class>
Flavanone

> <Compound_Superclass>
Flavonoid

> <Data_Source>
Isolation (Extraction)

> <Notes>
Leaf isolate.

> <Validation_Status>
Verified

> <Fraction_CSP3>
0.1875

> <Ring_Count>
3

> <Aromatic_Ring_Count>
2

> <Heavy_Atom_Count>
21

> <Molar_Refractivity>
75.08210000000003

> <QED_Score>
0.8874343900434254

> <Veber_Status>
Pass

> <Ghose_Violations>
0

> <Ghose_Status>
Pass

$$$$
7-Hydroxy-6-methoxyflavanone
  AfroDiabDB_Exporter

  0  0  0  0  0  0  0  0  0  0999 V2000
M  END
> <Compound_ID>
AFRO-0163

> <Compound_Name>
7-Hydroxy-6-methoxyflavanone

> <Plant_Name>
Dracaena steudneri

> <Common_Name>
Dragon tree

> <Plant_Family>
Asparagaceae

> <Plant_Part>
Leaves, fruits

> <Country_of_Use>
Kenya

> <PubChem_CID>
86206540

> <Canonical_SMILES>
COc1cc2c(cc1O)OC(c1ccccc1)CC2=O

> <InChIKey>
WCXMGPNELNHROM-UHFFFAOYSA-N

> <Molecular_Formula>
C16H14O4

> <Molecular_Weight>
270.284

> <LogP>
3.107300000000001

> <HBD>
1

> <HBA>
4

> <TPSA>
55.76

> <Rotatable_Bonds>
2

> <Lipinski_Violations>
0

> <Lipinski_Status>
Pass

> <Reported_Activity>
Inhibition of proinflammatory cytokines

> <Assay_Target>
Proinflammatory cytokines

> <DOI_Reference>
10.3390/molecules28207202

> <Reference_Year>
2023

> <Compound_Class>
Flavanone

> <Compound_Superclass>
Flavonoid

> <Data_Source>
Isolation (Extraction)

> <Notes>
Leaf isolate.

> <Validation_Status>
Verified

> <Fraction_CSP3>
0.1875

> <Ring_Count>
3

> <Aromatic_Ring_Count>
2

> <Heavy_Atom_Count>
20

> <Molar_Refractivity>
73.41730000000003

> <QED_Score>
0.9105940495449671

> <Veber_Status>
Pass

> <Ghose_Violations>
0

> <Ghose_Status>
Pass

$$$$
4',5,7-Trihydroxy-6-methylflavanone
  AfroDiabDB_Exporter

  0  0  0  0  0  0  0  0  0  0999 V2000
M  END
> <Compound_ID>
AFRO-0164

> <Compound_Name>
4',5,7-Trihydroxy-6-methylflavanone

> <Plant_Name>
Dracaena steudneri

> <Common_Name>
Dragon tree

> <Plant_Family>
Asparagaceae

> <Plant_Part>
Leaves, fruits

> <Country_of_Use>
Kenya

> <PubChem_CID>
301798

> <Canonical_SMILES>
Cc1c(O)cc2c(c1O)C(=O)CC(c1ccc(O)cc1)O2

> <InChIKey>
SLFZBNOERHGNMI-UHFFFAOYSA-N

> <Molecular_Formula>
C16H14O5

> <Molecular_Weight>
286.283

> <LogP>
2.818320000000001

> <HBD>
3

> <HBA>
5

> <TPSA>
86.99000000000001

> <Rotatable_Bonds>
1

> <Lipinski_Violations>
0

> <Lipinski_Status>
Pass

> <Reported_Activity>
Inhibition of proinflammatory cytokines

> <Assay_Target>
Proinflammatory cytokines

> <DOI_Reference>
10.3390/molecules28207202

> <Reference_Year>
2023

> <Compound_Class>
Flavanone

> <Compound_Superclass>
Flavonoid

> <Data_Source>
Isolation (Extraction)

> <Notes>
Leaf isolate.

> <Validation_Status>
Verified

> <Fraction_CSP3>
0.1875

> <Ring_Count>
3

> <Aromatic_Ring_Count>
2

> <Heavy_Atom_Count>
21

> <Molar_Refractivity>
74.93190000000003

> <QED_Score>
0.7500314210929858

> <Veber_Status>
Pass

> <Ghose_Violations>
0

> <Ghose_Status>
Pass

$$$$
Methylquercetin
  AfroDiabDB_Exporter

  0  0  0  0  0  0  0  0  0  0999 V2000
M  END
> <Compound_ID>
AFRO-0165

> <Compound_Name>
Methylquercetin

> <Plant_Name>
Dracaena steudneri

> <Common_Name>
Dragon tree

> <Plant_Family>
Asparagaceae

> <Plant_Part>
Leaves, fruits

> <Country_of_Use>
Kenya

> <PubChem_CID>
5281679

> <Canonical_SMILES>
Cc1c(O)cc2oc(-c3ccc(O)c(O)c3)c(O)c(=O)c2c1O

> <InChIKey>
DTFXGVGIKNSCQQ-UHFFFAOYSA-N

> <Molecular_Formula>
C16H12O7

> <Molecular_Weight>
316.2650000000001

> <LogP>
2.29642

> <HBD>
5

> <HBA>
7

> <TPSA>
131.36

> <Rotatable_Bonds>
1

> <Lipinski_Violations>
0

> <Lipinski_Status>
Pass

> <Reported_Activity>
Antidiabetic / Anti-inflammatory

> <Assay_Target>
Cytokines / Metabolic targets

> <DOI_Reference>
10.3390/molecules28207202

> <Reference_Year>
2023

> <Compound_Class>
Flavonoid

> <Compound_Superclass>
Flavonoid

> <Data_Source>
Isolation (Extraction)

> <Notes>
Leaf isolate.

> <Validation_Status>
Verified

> <Fraction_CSP3>
0.0625

> <Ring_Count>
3

> <Aromatic_Ring_Count>
3

> <Heavy_Atom_Count>
23

> <Molar_Refractivity>
80.981

> <QED_Score>
0.4351334187207366

> <Veber_Status>
Pass

> <Ghose_Violations>
0

> <Ghose_Status>
Pass

$$$$
3,3'-Di-O-methylquercetin
  AfroDiabDB_Exporter

  0  0  0  0  0  0  0  0  0  0999 V2000
M  END
> <Compound_ID>
AFRO-0166

> <Compound_Name>
3,3'-Di-O-methylquercetin

> <Plant_Name>
Dracaena steudneri

> <Common_Name>
Dragon tree

> <Plant_Family>
Asparagaceae

> <Plant_Part>
Leaves, fruits

> <Country_of_Use>
Kenya

> <PubChem_CID>
5316900

> <Canonical_SMILES>
COc1cc(-c2oc3cc(O)cc(O)c3c(=O)c2OC)ccc1O

> <InChIKey>
FMEHGPQTMOPUGM-UHFFFAOYSA-N

> <Molecular_Formula>
C17H14O7

> <Molecular_Weight>
330.292

> <LogP>
2.594000000000002

> <HBD>
3

> <HBA>
7

> <TPSA>
109.36

> <Rotatable_Bonds>
3

> <Lipinski_Violations>
0

> <Lipinski_Status>
Pass

> <Reported_Activity>
Antidiabetic / Cytotoxic

> <Assay_Target>
Cancer cell lines / Targets

> <DOI_Reference>
10.3390/molecules28207202

> <Reference_Year>
2023

> <Compound_Class>
Flavonoid

> <Compound_Superclass>
Flavonoid

> <Data_Source>
Isolation (Extraction)

> <Notes>
Bioactive seed isolate.

> <Validation_Status>
Verified

> <Fraction_CSP3>
0.1176470588235294

> <Ring_Count>
3

> <Aromatic_Ring_Count>
3

> <Heavy_Atom_Count>
24

> <Molar_Refractivity>
86.01840000000001

> <QED_Score>
0.6768622802504395

> <Veber_Status>
Pass

> <Ghose_Violations>
0

> <Ghose_Status>
Pass

$$$$
Kaempferol-3-methyl ether
  AfroDiabDB_Exporter

  0  0  0  0  0  0  0  0  0  0999 V2000
M  END
> <Compound_ID>
AFRO-0167

> <Compound_Name>
Kaempferol-3-methyl ether

> <Plant_Name>
Dracaena steudneri

> <Common_Name>
Dragon tree

> <Plant_Family>
Asparagaceae

> <Plant_Part>
Leaves, fruits

> <Country_of_Use>
Kenya

> <PubChem_CID>
5280862

> <Canonical_SMILES>
COc1c(-c2ccc(O)cc2)oc2cc(O)cc(O)c2c1=O

> <InChIKey>
VJJZJBUCDWKPLC-UHFFFAOYSA-N

> <Molecular_Formula>
C16H12O6

> <Molecular_Weight>
300.266

> <LogP>
2.5854

> <HBD>
3

> <HBA>
6

> <TPSA>
100.13

> <Rotatable_Bonds>
2

> <Lipinski_Violations>
0

> <Lipinski_Status>
Pass

> <Reported_Activity>
Antidiabetic

> <Assay_Target>
Metabolic targets

> <DOI_Reference>
10.3390/molecules28207202

> <Reference_Year>
2023

> <Compound_Class>
Flavonoid

> <Compound_Superclass>
Flavonoid

> <Data_Source>
Isolation (Extraction)

> <Notes>
Leaf isolate.

> <Validation_Status>
Verified

> <Fraction_CSP3>
0.0625

> <Ring_Count>
3

> <Aromatic_Ring_Count>
3

> <Heavy_Atom_Count>
22

> <Molar_Refractivity>
79.46640000000001

> <QED_Score>
0.6723108130019759

> <Veber_Status>
Pass

> <Ghose_Violations>
0

> <Ghose_Status>
Pass

$$$$
Jaceidin
  AfroDiabDB_Exporter

  0  0  0  0  0  0  0  0  0  0999 V2000
M  END
> <Compound_ID>
AFRO-0168

> <Compound_Name>
Jaceidin

> <Plant_Name>
Dracaena steudneri

> <Common_Name>
Dragon tree

> <Plant_Family>
Asparagaceae

> <Plant_Part>
Leaves, fruits

> <Country_of_Use>
Kenya

> <PubChem_CID>
5464461

> <Canonical_SMILES>
COc1cc(-c2oc3cc(O)c(OC)c(O)c3c(=O)c2OC)ccc1O

> <InChIKey>
XUWTZJRCCPNNJR-UHFFFAOYSA-N

> <Molecular_Formula>
C18H16O8

> <Molecular_Weight>
360.3180000000001

> <LogP>
2.602600000000001

> <HBD>
3

> <HBA>
8

> <TPSA>
118.59

> <Rotatable_Bonds>
4

> <Lipinski_Violations>
0

> <Lipinski_Status>
Pass

> <Reported_Activity>
Antidiabetic

> <Assay_Target>
Metabolic targets

> <DOI_Reference>
10.3390/molecules28207202

> <Reference_Year>
2023

> <Compound_Class>
Flavone

> <Compound_Superclass>
Flavonoid

> <Data_Source>
Isolation (Extraction)

> <Notes>
Leaf isolate.

> <Validation_Status>
Verified

> <Fraction_CSP3>
0.1666666666666667

> <Ring_Count>
3

> <Aromatic_Ring_Count>
3

> <Heavy_Atom_Count>
26

> <Molar_Refractivity>
92.57040000000002

> <QED_Score>
0.6495944582933125

> <Veber_Status>
Pass

> <Ghose_Violations>
0

> <Ghose_Status>
Pass

$$$$
7-Hydroxy-6-methoxyflavone
  AfroDiabDB_Exporter

  0  0  0  0  0  0  0  0  0  0999 V2000
M  END
> <Compound_ID>
AFRO-0169

> <Compound_Name>
7-Hydroxy-6-methoxyflavone

> <Plant_Name>
Dracaena steudneri

> <Common_Name>
Dragon tree

> <Plant_Family>
Asparagaceae

> <Plant_Part>
Leaves, fruits

> <Country_of_Use>
Kenya

> <PubChem_CID>
14376438

> <Canonical_SMILES>
COc1cc2c(=O)cc(-c3ccccc3)oc2cc1O

> <InChIKey>
BJBKXYIIWYIZCX-UHFFFAOYSA-N

> <Molecular_Formula>
C16H12O4

> <Molecular_Weight>
268.268

> <LogP>
3.174200000000002

> <HBD>
1

> <HBA>
4

> <TPSA>
59.67

> <Rotatable_Bonds>
2

> <Lipinski_Violations>
0

> <Lipinski_Status>
Pass

> <Reported_Activity>
Antidiabetic

> <Assay_Target>
Metabolic targets

> <DOI_Reference>
10.3390/molecules28207202

> <Reference_Year>
2023

> <Compound_Class>
Flavone

> <Compound_Superclass>
Flavonoid

> <Data_Source>
Isolation (Extraction)

> <Notes>
Leaf isolate.

> <Validation_Status>
Verified

> <Fraction_CSP3>
0.0625

> <Ring_Count>
3

> <Aromatic_Ring_Count>
3

> <Heavy_Atom_Count>
20

> <Molar_Refractivity>
76.13680000000002

> <QED_Score>
0.7751029818957303

> <Veber_Status>
Pass

> <Ghose_Violations>
0

> <Ghose_Status>
Pass

$$$$
6,8-Dimethylchrysin
  AfroDiabDB_Exporter

  0  0  0  0  0  0  0  0  0  0999 V2000
M  END
> <Compound_ID>
AFRO-0170

> <Compound_Name>
6,8-Dimethylchrysin

> <Plant_Name>
Dracaena steudneri

> <Common_Name>
Dragon tree

> <Plant_Family>
Asparagaceae

> <Plant_Part>
Leaves, fruits

> <Country_of_Use>
Kenya

> <PubChem_CID>
10401497

> <Canonical_SMILES>
Cc1c(O)c(C)c2oc(-c3ccccc3)cc(=O)c2c1O

> <InChIKey>
IHCSYRDYLHMMRU-UHFFFAOYSA-N

> <Molecular_Formula>
C17H14O4

> <Molecular_Weight>
282.295

> <LogP>
3.488040000000002

> <HBD>
2

> <HBA>
4

> <TPSA>
70.67

> <Rotatable_Bonds>
1

> <Lipinski_Violations>
0

> <Lipinski_Status>
Pass

> <Reported_Activity>
Antidiabetic

> <Assay_Target>
Metabolic targets

> <DOI_Reference>
10.3390/molecules28207202

> <Reference_Year>
2023

> <Compound_Class>
Flavone

> <Compound_Superclass>
Flavonoid

> <Data_Source>
Isolation (Extraction)

> <Notes>
Leaf isolate.

> <Validation_Status>
Verified

> <Fraction_CSP3>
0.1176470588235294

> <Ring_Count>
3

> <Aromatic_Ring_Count>
3

> <Heavy_Atom_Count>
21

> <Molar_Refractivity>
80.72360000000002

> <QED_Score>
0.7164207594802947

> <Veber_Status>
Pass

> <Ghose_Violations>
0

> <Ghose_Status>
Pass

$$$$
Strobochrysin
  AfroDiabDB_Exporter

  0  0  0  0  0  0  0  0  0  0999 V2000
M  END
> <Compound_ID>
AFRO-0171

> <Compound_Name>
Strobochrysin

> <Plant_Name>
Dracaena steudneri

> <Common_Name>
Dragon tree

> <Plant_Family>
Asparagaceae

> <Plant_Part>
Leaves, fruits

> <Country_of_Use>
Kenya

> <PubChem_CID>
11536318

> <Canonical_SMILES>
Cc1c(O)cc2oc(-c3ccccc3)cc(=O)c2c1O

> <InChIKey>
XRJWLVUOUWIPHW-UHFFFAOYSA-N

> <Molecular_Formula>
C16H12O4

> <Molecular_Weight>
268.268

> <LogP>
3.179620000000002

> <HBD>
2

> <HBA>
4

> <TPSA>
70.67

> <Rotatable_Bonds>
1

> <Lipinski_Violations>
0

> <Lipinski_Status>
Pass

> <Reported_Activity>
Antidiabetic

> <Assay_Target>
Metabolic targets

> <DOI_Reference>
10.3390/molecules28207202

> <Reference_Year>
2023

> <Compound_Class>
Flavanone

> <Compound_Superclass>
Flavonoid

> <Data_Source>
Isolation (Extraction)

> <Notes>
Leaf isolate.

> <Validation_Status>
Verified

> <Fraction_CSP3>
0.0625

> <Ring_Count>
3

> <Aromatic_Ring_Count>
3

> <Heavy_Atom_Count>
20

> <Molar_Refractivity>
75.98660000000002

> <QED_Score>
0.710721116511046

> <Veber_Status>
Pass

> <Ghose_Violations>
0

> <Ghose_Status>
Pass

$$$$
3,5,7-Trihydroxy-6-methylflavanone
  AfroDiabDB_Exporter

  0  0  0  0  0  0  0  0  0  0999 V2000
M  END
> <Compound_ID>
AFRO-0172

> <Compound_Name>
3,5,7-Trihydroxy-6-methylflavanone

> <Plant_Name>
Dracaena steudneri

> <Common_Name>
Dragon tree

> <Plant_Family>
Asparagaceae

> <Plant_Part>
Leaves, fruits

> <Country_of_Use>
Kenya

> <PubChem_CID>
129686572

> <Canonical_SMILES>
Cc1c(O)cc2c(c1O)C(=O)C(O)C(c1ccccc1)O2

> <InChIKey>
VAJGHLOBFXQACD-UHFFFAOYSA-N

> <Molecular_Formula>
C16H14O5

> <Molecular_Weight>
286.283

> <LogP>
2.083519999999999

> <HBD>
3

> <HBA>
5

> <TPSA>
86.99000000000001

> <Rotatable_Bonds>
1

> <Lipinski_Violations>
0

> <Lipinski_Status>
Pass

> <Reported_Activity>
Antidiabetic

> <Assay_Target>
Metabolic targets

> <DOI_Reference>
10.3390/molecules28207202

> <Reference_Year>
2023

> <Compound_Class>
Flavanone

> <Compound_Superclass>
Flavonoid

> <Data_Source>
Isolation (Extraction)

> <Notes>
Leaf isolate.

> <Validation_Status>
Verified

> <Fraction_CSP3>
0.1875

> <Ring_Count>
3

> <Aromatic_Ring_Count>
2

> <Heavy_Atom_Count>
21

> <Molar_Refractivity>
74.65690000000002

> <QED_Score>
0.7468581356735495

> <Veber_Status>
Pass

> <Ghose_Violations>
0

> <Ghose_Status>
Pass

$$$$
3,5,7-Trihydroxy-6-methoxyflavanone
  AfroDiabDB_Exporter

  0  0  0  0  0  0  0  0  0  0999 V2000
M  END
> <Compound_ID>
AFRO-0173

> <Compound_Name>
3,5,7-Trihydroxy-6-methoxyflavanone

> <Plant_Name>
Dracaena steudneri

> <Common_Name>
Dragon tree

> <Plant_Family>
Asparagaceae

> <Plant_Part>
Leaves, fruits

> <Country_of_Use>
Kenya

> <PubChem_CID>
12305752

> <Canonical_SMILES>
COc1c(O)cc2c(c1O)C(=O)C(O)C(c1ccccc1)O2

> <InChIKey>
HFDPLPWGKGPTJB-UHFFFAOYSA-N

> <Molecular_Formula>
C16H14O6

> <Molecular_Weight>
302.282

> <LogP>
1.783699999999999

> <HBD>
3

> <HBA>
6

> <TPSA>
96.22

> <Rotatable_Bonds>
2

> <Lipinski_Violations>
0

> <Lipinski_Status>
Pass

> <Reported_Activity>
Antidiabetic

> <Assay_Target>
Metabolic targets

> <DOI_Reference>
10.3390/molecules28207202

> <Reference_Year>
2023

> <Compound_Class>
Flavanone

> <Compound_Superclass>
Flavonoid

> <Data_Source>
Isolation (Extraction)

> <Notes>
Leaf isolate.

> <Validation_Status>
Verified

> <Fraction_CSP3>
0.1875

> <Ring_Count>
3

> <Aromatic_Ring_Count>
2

> <Heavy_Atom_Count>
22

> <Molar_Refractivity>
76.47190000000002

> <QED_Score>
0.7823346567694073

> <Veber_Status>
Pass

> <Ghose_Violations>
0

> <Ghose_Status>
Pass

$$$$
3,7-Dihydroxy-6-methoxyflavanone
  AfroDiabDB_Exporter

  0  0  0  0  0  0  0  0  0  0999 V2000
M  END
> <Compound_ID>
AFRO-0174

> <Compound_Name>
3,7-Dihydroxy-6-methoxyflavanone

> <Plant_Name>
Dracaena steudneri

> <Common_Name>
Dragon tree

> <Plant_Family>
Asparagaceae

> <Plant_Part>
Leaves, fruits

> <Country_of_Use>
Kenya

> <PubChem_CID>
129650648

> <Canonical_SMILES>
COc1cc2c(cc1O)OC(c1ccccc1)C(O)C2=O

> <InChIKey>
GUMFPOIJOXLCLA-UHFFFAOYSA-N

> <Molecular_Formula>
C16H14O5

> <Molecular_Weight>
286.2830000000001

> <LogP>
2.0781

> <HBD>
2

> <HBA>
5

> <TPSA>
75.99000000000001

> <Rotatable_Bonds>
2

> <Lipinski_Violations>
0

> <Lipinski_Status>
Pass

> <Reported_Activity>
Antidiabetic

> <Assay_Target>
Metabolic targets

> <DOI_Reference>
10.3390/molecules28207202

> <Reference_Year>
2023

> <Compound_Class>
Flavanone

> <Compound_Superclass>
Flavonoid

> <Data_Source>
Isolation (Extraction)

> <Notes>
Leaf isolate.

> <Validation_Status>
Verified

> <Fraction_CSP3>
0.1875

> <Ring_Count>
3

> <Aromatic_Ring_Count>
2

> <Heavy_Atom_Count>
21

> <Molar_Refractivity>
74.80710000000002

> <QED_Score>
0.8836231167357048

> <Veber_Status>
Pass

> <Ghose_Violations>
0

> <Ghose_Status>
Pass

$$$$
Dehydrocarpaine I
  AfroDiabDB_Exporter

  0  0  0  0  0  0  0  0  0  0999 V2000
M  END
> <Compound_ID>
AFRO-0177

> <Compound_Name>
Dehydrocarpaine I

> <Plant_Name>
Carica papaya L.

> <Common_Name>
Papaya

> <Plant_Family>
Caricaceae

> <Plant_Part>
Leaf

> <Country_of_Use>
Nigeria; Globally

> <PubChem_CID>
101306351

> <Canonical_SMILES>
CCCC=CC(=O)OC1CCCCCCOC(=O)CC2C(C)CCCC2OC2CCCC(C)C2C1

> <InChIKey>
LMAUYGQIGIDCCR-UHFFFAOYSA-N

> <Molecular_Formula>
C28H48N2O4

> <Molecular_Weight>
490.7250000000003

> <LogP>
7.168200000000009

> <HBD>
0

> <HBA>
5

> <TPSA>
61.83000000000001

> <Rotatable_Bonds>
4

> <Lipinski_Violations>
1

> <Lipinski_Status>
Pass

> <Reported_Activity>
Antidiabetic, hypoglycemic

> <Assay_Target>
Pancreatic β-cells

> <DOI_Reference>
10.31989/bchd.v6i6.1108

> <Reference_Year>
2023

> <Compound_Class>
Piperidine Alkaloid

> <Compound_Superclass>
Alkaloid

> <Data_Source>
Bioactive Compounds in Health and Disease

> <Notes>
Alkaloid derivative in papaya leaf associated with glucose-lowering activity.

> <Validation_Status>
Verified

> <Fraction_CSP3>
0.8666666666666667

> <Ring_Count>
3

> <Aromatic_Ring_Count>
0

> <Heavy_Atom_Count>
35

> <Molar_Refractivity>
138.877

> <QED_Score>
0.3087401631951643

> <Veber_Status>
Pass

> <Ghose_Violations>
3

> <Ghose_Status>
Fail

$$$$
Clitorin (Kaempferol 3-O-neohesperidoside)
  AfroDiabDB_Exporter

  0  0  0  0  0  0  0  0  0  0999 V2000
M  END
> <Compound_ID>
AFRO-0179

> <Compound_Name>
Clitorin (Kaempferol 3-O-neohesperidoside)

> <Plant_Name>
Carica papaya L.

> <Common_Name>
Papaya

> <Plant_Family>
Caricaceae

> <Plant_Part>
Leaf

> <Country_of_Use>
Nigeria; Globally

> <PubChem_CID>
5483200

> <Canonical_SMILES>
CC1OC(OC2OCC(O)C(O)C2Oc2c(-c3ccc(O)cc3)oc3cc(O)cc(O)c3c2=O)C(O)C(O)C1O

> <InChIKey>
DRASKKGWMIMUSD-UHFFFAOYSA-N

> <Molecular_Formula>
C27H30O15

> <Molecular_Weight>
564.4960000000005

> <LogP>
-0.7535999999999996

> <HBD>
8

> <HBA>
14

> <TPSA>
228.97

> <Rotatable_Bonds>
5

> <Lipinski_Violations>
3

> <Lipinski_Status>
Fail

> <Reported_Activity>
Antidiabetic, antioxidant

> <Assay_Target>
α-Glucosidase

> <DOI_Reference>
10.31989/bchd.v6i6.1108

> <Reference_Year>
2023

> <Compound_Class>
Flavonoid Glycoside

> <Compound_Superclass>
Flavonoid

> <Data_Source>
Bioactive Compounds in Health and Disease

> <Notes>
Flavonoid constituent identified in C. papaya leaf.

> <Validation_Status>
Verified

> <Fraction_CSP3>
0.4230769230769231

> <Ring_Count>
5

> <Aromatic_Ring_Count>
3

> <Heavy_Atom_Count>
40

> <Molar_Refractivity>
132.5244000000001

> <QED_Score>
0.1906440472467724

> <Veber_Status>
Fail

> <Ghose_Violations>
3

> <Ghose_Status>
Fail

$$$$
D-Mannitol
  AfroDiabDB_Exporter

  0  0  0  0  0  0  0  0  0  0999 V2000
M  END
> <Compound_ID>
AFRO-0180

> <Compound_Name>
D-Mannitol

> <Plant_Name>
Carica papaya L.

> <Common_Name>
Papaya

> <Plant_Family>
Caricaceae

> <Plant_Part>
Leaf

> <Country_of_Use>
Nigeria; Globally

> <PubChem_CID>
6251

> <Canonical_SMILES>
OCC(O)C(O)C(O)C(O)CO

> <InChIKey>
FBPFZTCFMRRESA-UHFFFAOYSA-N

> <Molecular_Formula>
C6H14O6

> <Molecular_Weight>
182.172

> <LogP>
-3.585399999999998

> <HBD>
6

> <HBA>
6

> <TPSA>
121.38

> <Rotatable_Bonds>
5

> <Lipinski_Violations>
1

> <Lipinski_Status>
Pass

> <Reported_Activity>
Aldose Reductase inhibitor, antidiabetic potential

> <Assay_Target>
Aldose Reductase

> <DOI_Reference>
10.31989/bchd.v6i6.1108

> <Reference_Year>
2023

> <Compound_Class>
Sugar Alcohol (Polyol)

> <Compound_Superclass>
Carbohydrate

> <Data_Source>
Bioactive Compounds in Health and Disease

> <Notes>
Identified in leaf extract; targets polyol pathway enzymes.

> <Validation_Status>
Verified

> <Fraction_CSP3>
1.0

> <Ring_Count>
0

> <Aromatic_Ring_Count>
0

> <Heavy_Atom_Count>
12

> <Molar_Refractivity>
38.19879999999999

> <QED_Score>
0.2612626527203185

> <Veber_Status>
Pass

> <Ghose_Violations>
3

> <Ghose_Status>
Fail

$$$$
5,7-Dimethoxycoumarin (Citropten)
  AfroDiabDB_Exporter

  0  0  0  0  0  0  0  0  0  0999 V2000
M  END
> <Compound_ID>
AFRO-0185

> <Compound_Name>
5,7-Dimethoxycoumarin (Citropten)

> <Plant_Name>
Carica papaya L.

> <Common_Name>
Papaya

> <Plant_Family>
Caricaceae

> <Plant_Part>
Leaf

> <Country_of_Use>
Nigeria; Globally

> <PubChem_CID>
10766

> <Canonical_SMILES>
COc1cc(OC)c2oc(=O)ccc2c1

> <InChIKey>
UQUJRRZSWGUHRN-UHFFFAOYSA-N

> <Molecular_Formula>
C11H10O4

> <Molecular_Weight>
206.197

> <LogP>
1.8102

> <HBD>
0

> <HBA>
4

> <TPSA>
48.67

> <Rotatable_Bonds>
2

> <Lipinski_Violations>
0

> <Lipinski_Status>
Pass

> <Reported_Activity>
Antidiabetic, aldose reductase inhibitor, antioxidant

> <Assay_Target>
Aldose Reductase

> <DOI_Reference>
10.31989/bchd.v6i6.1108

> <Reference_Year>
2023

> <Compound_Class>
Coumarin

> <Compound_Superclass>
Phenylpropanoid

> <Data_Source>
Bioactive Compounds in Health and Disease

> <Notes>
Coumarin derivative isolated from C. papaya leaves.

> <Validation_Status>
Verified

> <Fraction_CSP3>
0.1818181818181818

> <Ring_Count>
2

> <Aromatic_Ring_Count>
2

> <Heavy_Atom_Count>
15

> <Molar_Refractivity>
55.58800000000002

> <QED_Score>
0.7029061202023811

> <Veber_Status>
Pass

> <Ghose_Violations>
1

> <Ghose_Status>
Fail

$$$$
Loliolide
  AfroDiabDB_Exporter

  0  0  0  0  0  0  0  0  0  0999 V2000
M  END
> <Compound_ID>
AFRO-0186

> <Compound_Name>
Loliolide

> <Plant_Name>
Carica papaya L.

> <Common_Name>
Papaya

> <Plant_Family>
Caricaceae

> <Plant_Part>
Leaf

> <Country_of_Use>
Nigeria; Globally

> <PubChem_CID>
101880

> <Canonical_SMILES>
CC1(C)CC2=CC(=O)OC2(C)C(O)C1

> <InChIKey>
GGJGATJJLBTVJC-UHFFFAOYSA-N

> <Molecular_Formula>
C11H16O3

> <Molecular_Weight>
196.246

> <LogP>
1.4092

> <HBD>
1

> <HBA>
3

> <TPSA>
46.53

> <Rotatable_Bonds>
0

> <Lipinski_Violations>
0

> <Lipinski_Status>
Pass

> <Reported_Activity>
Antidiabetic, antioxidant, glucose regulation

> <Assay_Target>
α-Glucosidase, Insulin pathway

> <DOI_Reference>
10.31989/bchd.v6i6.1108

> <Reference_Year>
2023

> <Compound_Class>
Monoterpenoid Lactone

> <Compound_Superclass>
Terpenoid

> <Data_Source>
Bioactive Compounds in Health and Disease

> <Notes>
Bioactive monoterpenoid lactone identified in papaya leaves.

> <Validation_Status>
Verified

> <Fraction_CSP3>
0.7272727272727273

> <Ring_Count>
2

> <Aromatic_Ring_Count>
0

> <Heavy_Atom_Count>
14

> <Molar_Refractivity>
51.60180000000003

> <QED_Score>
0.5957351293152291

> <Veber_Status>
Pass

> <Ghose_Violations>
1

> <Ghose_Status>
Fail

$$$$
Linoleic Acid
  AfroDiabDB_Exporter

  0  0  0  0  0  0  0  0  0  0999 V2000
M  END
> <Compound_ID>
AFRO-0187

> <Compound_Name>
Linoleic Acid

> <Plant_Name>
Carica papaya L.

> <Common_Name>
Papaya

> <Plant_Family>
Caricaceae

> <Plant_Part>
Seed / Juice

> <Country_of_Use>
Nigeria; Globally

> <PubChem_CID>
5280450

> <Canonical_SMILES>
CCCCCC/C=C\C/C=C\CCCCCCCC(=O)O

> <InChIKey>
BFXHARLBAGKNRH-NQLNTKRDSA-N

> <Molecular_Formula>
C18H32O2

> <Molecular_Weight>
294.4789999999999

> <LogP>
6.274600000000007

> <HBD>
1

> <HBA>
1

> <TPSA>
37.3

> <Rotatable_Bonds>
15

> <Lipinski_Violations>
1

> <Lipinski_Status>
Pass

> <Reported_Activity>
Antidiabetic seed constituent, lipid regulator

> <Assay_Target>
α-Amylase, α-Glucosidase

> <DOI_Reference>
10.31989/bchd.v6i6.1108

> <Reference_Year>
2023

> <Compound_Class>
Polyunsaturated Fatty Acid

> <Compound_Superclass>
Lipid

> <Data_Source>
Bioactive Compounds in Health and Disease

> <Notes>
Essential polyunsaturated fatty acid in C. papaya seed oil.

> <Validation_Status>
Verified

> <Fraction_CSP3>
0.7368421052631579

> <Ring_Count>
0

> <Aromatic_Ring_Count>
0

> <Heavy_Atom_Count>
21

> <Molar_Refractivity>
91.61080000000007

> <QED_Score>
0.2851110815777891

> <Veber_Status>
Fail

> <Ghose_Violations>
1

> <Ghose_Status>
Fail

$$$$
alpha-Tocopherol (Vitamin E)
  AfroDiabDB_Exporter

  0  0  0  0  0  0  0  0  0  0999 V2000
M  END
> <Compound_ID>
AFRO-0189

> <Compound_Name>
alpha-Tocopherol (Vitamin E)

> <Plant_Name>
Carica papaya L.

> <Common_Name>
Papaya

> <Plant_Family>
Caricaceae

> <Plant_Part>
Seed / Leaf

> <Country_of_Use>
Nigeria; Globally

> <PubChem_CID>
14985

> <Canonical_SMILES>
Cc1c(C)c2c(c(C)c1O)CCC(C)(CCCC(C)CCCC(C)CCCC(C)C)O2

> <InChIKey>
GVJHHUAWPYXKBD-UHFFFAOYSA-N

> <Molecular_Formula>
C29H50O2

> <Molecular_Weight>
430.7170000000002

> <LogP>
8.840260000000002

> <HBD>
1

> <HBA>
2

> <TPSA>
29.46

> <Rotatable_Bonds>
12

> <Lipinski_Violations>
1

> <Lipinski_Status>
Pass

> <Reported_Activity>
Antioxidant, protective against diabetic lipid peroxidation

> <Assay_Target>
Free radicals, lipid peroxidation

> <DOI_Reference>
10.31989/bchd.v6i6.1108

> <Reference_Year>
2023

> <Compound_Class>
Tocopherol

> <Compound_Superclass>
Lipid

> <Data_Source>
Bioactive Compounds in Health and Disease

> <Notes>
Lipid-soluble antioxidant in C. papaya seed oil.

> <Validation_Status>
Verified

> <Fraction_CSP3>
0.7931034482758621

> <Ring_Count>
2

> <Aromatic_Ring_Count>
1

> <Heavy_Atom_Count>
31

> <Molar_Refractivity>
134.3908

> <QED_Score>
0.3586439444789778

> <Veber_Status>
Fail

> <Ghose_Violations>
2

> <Ghose_Status>
Fail

$$$$
Cryptoxanthin (beta-Cryptoxanthin)
  AfroDiabDB_Exporter

  0  0  0  0  0  0  0  0  0  0999 V2000
M  END
> <Compound_ID>
AFRO-0190

> <Compound_Name>
Cryptoxanthin (beta-Cryptoxanthin)

> <Plant_Name>
Carica papaya L.

> <Common_Name>
Papaya

> <Plant_Family>
Caricaceae

> <Plant_Part>
Fruit / Leaf / Seed

> <Country_of_Use>
Nigeria; Globally

> <PubChem_CID>
5281235

> <Canonical_SMILES>
CC1=C(/C=C/C(C)=C/C=C/C(C)=C/C=C/C=C(C)/C=C/C=C(C)/C=C/C2=C(C)CC(O)CC2(C)C)C(C)(C)CCC1

> <InChIKey>
DMASLKHVQRHNES-QQGJMDNJSA-N

> <Molecular_Formula>
C40H56O

> <Molecular_Weight>
552.8870000000003

> <LogP>
11.57659999999998

> <HBD>
1

> <HBA>
1

> <TPSA>
20.23

> <Rotatable_Bonds>
10

> <Lipinski_Violations>
2

> <Lipinski_Status>
Fail

> <Reported_Activity>
Antioxidant, protection against T2DM oxidative damage

> <Assay_Target>
Free radical scavenging

> <DOI_Reference>
10.31989/bchd.v6i6.1108

> <Reference_Year>
2023

> <Compound_Class>
Xanthophyll Carotenoid

> <Compound_Superclass>
Lipid

> <Data_Source>
Bioactive Compounds in Health and Disease

> <Notes>
Pro-vitamin A xanthophyll in C. papaya fruit and leaves.

> <Validation_Status>
Verified

> <Fraction_CSP3>
0.45

> <Ring_Count>
2

> <Aromatic_Ring_Count>
0

> <Heavy_Atom_Count>
41

> <Molar_Refractivity>
182.7817999999994

> <QED_Score>
0.2671977258684227

> <Veber_Status>
Pass

> <Ghose_Violations>
3

> <Ghose_Status>
Fail

$$$$
Orientin 7-O-rhamnoside
  AfroDiabDB_Exporter

  0  0  0  0  0  0  0  0  0  0999 V2000
M  END
> <Compound_ID>
AFRO-0193

> <Compound_Name>
Orientin 7-O-rhamnoside

> <Plant_Name>
Carica papaya L.

> <Common_Name>
Papaya

> <Plant_Family>
Caricaceae

> <Plant_Part>
Leaf

> <Country_of_Use>
Nigeria; Globally

> <PubChem_CID>
131751336

> <Canonical_SMILES>
CC1OC(Oc2cc(O)c3c(c2)C(O)C(O)C(c2ccc(O)c(O)c2)O3)C(O)C(O)C1O

> <InChIKey>
JEAWSKMOERQWCU-UHFFFAOYSA-N

> <Molecular_Formula>
C27H30O15

> <Molecular_Weight>
452.4120000000001

> <LogP>
-0.4623000000000004

> <HBD>
8

> <HBA>
11

> <TPSA>
189.53

> <Rotatable_Bonds>
3

> <Lipinski_Violations>
2

> <Lipinski_Status>
Fail

> <Reported_Activity>
Antidiabetic, antioxidant

> <Assay_Target>
α-Glucosidase

> <DOI_Reference>
10.31989/bchd.v6i6.1108

> <Reference_Year>
2023

> <Compound_Class>
Flavone C-Glycoside

> <Compound_Superclass>
Flavonoid

> <Data_Source>
Bioactive Compounds in Health and Disease

> <Notes>
C-glycosyl flavonoid derivative present in papaya leaves.

> <Validation_Status>
Verified

> <Fraction_CSP3>
0.4285714285714285

> <Ring_Count>
4

> <Aromatic_Ring_Count>
2

> <Heavy_Atom_Count>
32

> <Molar_Refractivity>
105.1974000000001

> <QED_Score>
0.28126151876089

> <Veber_Status>
Fail

> <Ghose_Violations>
1

> <Ghose_Status>
Fail

$$$$
Myricetin 3-rhamnoside (Myricitrin)
  AfroDiabDB_Exporter

  0  0  0  0  0  0  0  0  0  0999 V2000
M  END
> <Compound_ID>
AFRO-0195

> <Compound_Name>
Myricetin 3-rhamnoside (Myricitrin)

> <Plant_Name>
Carica papaya L.

> <Common_Name>
Papaya

> <Plant_Family>
Caricaceae

> <Plant_Part>
Leaf

> <Country_of_Use>
Nigeria; Globally

> <PubChem_CID>
5281673

> <Canonical_SMILES>
CC1OC(Oc2c(-c3cc(O)c(O)c(O)c3)oc3cc(O)cc(O)c3c2=O)C(O)C(O)C1O

> <InChIKey>
DCYOADKBABEMIQ-UHFFFAOYSA-N

> <Molecular_Formula>
C21H20O12

> <Molecular_Weight>
464.3790000000001

> <LogP>
0.1943000000000003

> <HBD>
8

> <HBA>
12

> <TPSA>
210.51

> <Rotatable_Bonds>
3

> <Lipinski_Violations>
2

> <Lipinski_Status>
Fail

> <Reported_Activity>
Antidiabetic, antioxidant, aldose reductase inhibitor

> <Assay_Target>
Aldose Reductase, α-Glucosidase

> <DOI_Reference>
10.31989/bchd.v6i6.1108

> <Reference_Year>
2023

> <Compound_Class>
Flavonoid Glycoside

> <Compound_Superclass>
Flavonoid

> <Data_Source>
Bioactive Compounds in Health and Disease

> <Notes>
Myricetin glycoside identified in leaf extracts.

> <Validation_Status>
Verified

> <Fraction_CSP3>
0.2857142857142857

> <Ring_Count>
4

> <Aromatic_Ring_Count>
3

> <Heavy_Atom_Count>
33

> <Molar_Refractivity>
109.2274

> <QED_Score>
0.24425467408199

> <Veber_Status>
Fail

> <Ghose_Violations>
0

> <Ghose_Status>
Pass

$$$$
Clitorin (Kaempferol 3-O-rutinoside-7-O-rhamnoside derivative)
  AfroDiabDB_Exporter

  0  0  0  0  0  0  0  0  0  0999 V2000
M  END
> <Compound_ID>
AFRO-0197

> <Compound_Name>
Clitorin (Kaempferol 3-O-rutinoside-7-O-rhamnoside derivative)

> <Plant_Name>
Carica papaya L.

> <Common_Name>
Papaya

> <Plant_Family>
Caricaceae

> <Plant_Part>
Leaf

> <Country_of_Use>
Nigeria; Globally

> <PubChem_CID>
11813834

> <Canonical_SMILES>
CC1OC(OCC2OC(Oc3c(-c4ccc(O)cc4)oc4cc(OC5OC(C)C(O)C(O)C5O)cc(O)c4c3=O)C(O)C(O)C2O)C(O)C(O)C1O

> <InChIKey>
PEFASEPMJYRQBW-UHFFFAOYSA-N

> <Molecular_Formula>
C33H40O19

> <Molecular_Weight>
740.6640000000008

> <LogP>
-2.891999999999997

> <HBD>
11

> <HBA>
19

> <TPSA>
308.12

> <Rotatable_Bonds>
8

> <Lipinski_Violations>
3

> <Lipinski_Status>
Fail

> <Reported_Activity>
Antidiabetic, antioxidant

> <Assay_Target>
α-Glucosidase

> <DOI_Reference>
10.31989/bchd.v6i6.1108

> <Reference_Year>
2023

> <Compound_Class>
Flavonoid Glycoside

> <Compound_Superclass>
Flavonoid

> <Data_Source>
Bioactive Compounds in Health and Disease

> <Notes>
Multiglycosylated kaempferol derivative in papaya leaves.

> <Validation_Status>
Verified

> <Fraction_CSP3>
0.5454545454545454

> <Ring_Count>
6

> <Aromatic_Ring_Count>
3

> <Heavy_Atom_Count>
52

> <Molar_Refractivity>
169.8497999999998

> <QED_Score>
0.110405422150913

> <Veber_Status>
Fail

> <Ghose_Violations>
3

> <Ghose_Status>
Fail

$$$$
Choline
  AfroDiabDB_Exporter

  0  0  0  0  0  0  0  0  0  0999 V2000
M  END
> <Compound_ID>
AFRO-0199

> <Compound_Name>
Choline

> <Plant_Name>
Carica papaya L.

> <Common_Name>
Papaya

> <Plant_Family>
Caricaceae

> <Plant_Part>
Leaf

> <Country_of_Use>
Nigeria; Globally

> <PubChem_CID>
305

> <Canonical_SMILES>
C[N+](C)(C)CCO

> <InChIKey>
OEYIOHPDSNJKLS-UHFFFAOYSA-N

> <Molecular_Formula>
C5H14NO+

> <Molecular_Weight>
104.173

> <LogP>
-0.3150999999999999

> <HBD>
1

> <HBA>
1

> <TPSA>
20.23

> <Rotatable_Bonds>
2

> <Lipinski_Violations>
0

> <Lipinski_Status>
Pass

> <Reported_Activity>
Lipotropic, antidiabetic nutrient, hepatic protective

> <Assay_Target>
Lipid metabolism, liver insulin signaling

> <DOI_Reference>
10.31989/bchd.v6i6.1108

> <Reference_Year>
2023

> <Compound_Class>
Quaternary Ammonium Compound

> <Compound_Superclass>
Nitrogenous Compound

> <Data_Source>
Bioactive Compounds in Health and Disease

> <Notes>
Essential lipotropic amine present in leaf extract.

> <Validation_Status>
Verified

> <Fraction_CSP3>
1.0

> <Ring_Count>
0

> <Aromatic_Ring_Count>
0

> <Heavy_Atom_Count>
7

> <Molar_Refractivity>
29.98519999999998

> <QED_Score>
0.4761839314892425

> <Veber_Status>
Pass

> <Ghose_Violations>
3

> <Ghose_Status>
Fail

$$$$
Chlorogenic acid
  AfroDiabDB_Exporter

  0  0  0  0  0  0  0  0  0  0999 V2000
M  END
> <Compound_ID>
AFRO-0202

> <Compound_Name>
Chlorogenic acid

> <Plant_Name>
Carica papaya L.

> <Common_Name>
Papaya

> <Plant_Family>
Caricaceae

> <Plant_Part>
Leaf

> <Country_of_Use>
Nigeria; Globally

> <PubChem_CID>
1794427

> <Canonical_SMILES>
O=C(/C=C/c1ccc(O)c(O)c1)OC1CC(O)C(O)CC1(O)C(=O)O

> <InChIKey>
CSJDRVFLXVZYSA-DUXPYHPUSA-N

> <Molecular_Formula>
C16H18O9

> <Molecular_Weight>
354.311

> <LogP>
-0.6459000000000001

> <HBD>
6

> <HBA>
8

> <TPSA>
164.75

> <Rotatable_Bonds>
4

> <Lipinski_Violations>
1

> <Lipinski_Status>
Pass

> <Reported_Activity>
Antidiabetic, glucose-6-phosphatase inhibitor, α-glucosidase inhibitor

> <Assay_Target>
Glucose-6-Phosphatase, α-Glucosidase

> <DOI_Reference>
10.31989/bchd.v6i6.1108

> <Reference_Year>
2023

> <Compound_Class>
Caffeoylquinic Acid

> <Compound_Superclass>
Phenolic Compound

> <Data_Source>
Bioactive Compounds in Health and Disease

> <Notes>
Key hydroxycinnamic acid ester in C. papaya leaves.

> <Validation_Status>
Verified

> <Fraction_CSP3>
0.375

> <Ring_Count>
2

> <Aromatic_Ring_Count>
1

> <Heavy_Atom_Count>
25

> <Molar_Refractivity>
82.5188

> <QED_Score>
0.2340852797608433

> <Veber_Status>
Fail

> <Ghose_Violations>
1

> <Ghose_Status>
Fail

$$$$
Protocatechuic acid
  AfroDiabDB_Exporter

  0  0  0  0  0  0  0  0  0  0999 V2000
M  END
> <Compound_ID>
AFRO-0203

> <Compound_Name>
Protocatechuic acid

> <Plant_Name>
Carica papaya L.

> <Common_Name>
Papaya

> <Plant_Family>
Caricaceae

> <Plant_Part>
Leaf

> <Country_of_Use>
Nigeria; Globally

> <PubChem_CID>
72

> <Canonical_SMILES>
O=C(O)c1ccc(O)c(O)c1

> <InChIKey>
YQUVCSBJEUQKSH-UHFFFAOYSA-N

> <Molecular_Formula>
C7H6O4

> <Molecular_Weight>
154.121

> <LogP>
0.7959999999999998

> <HBD>
3

> <HBA>
3

> <TPSA>
77.76

> <Rotatable_Bonds>
1

> <Lipinski_Violations>
0

> <Lipinski_Status>
Pass

> <Reported_Activity>
Antidiabetic, insulin-mimetic, antioxidant

> <Assay_Target>
Insulin receptor, free radicals

> <DOI_Reference>
10.31989/bchd.v6i6.1108

> <Reference_Year>
2023

> <Compound_Class>
Dihydroxybenzoic Acid

> <Compound_Superclass>
Phenolic Compound

> <Data_Source>
Bioactive Compounds in Health and Disease

> <Notes>
Dihydroxybenzoic acid in leaves; exhibits insulin-like metabolic actions.

> <Validation_Status>
Verified

> <Fraction_CSP3>
0.0

> <Ring_Count>
1

> <Aromatic_Ring_Count>
1

> <Heavy_Atom_Count>
11

> <Molar_Refractivity>
36.7309

> <QED_Score>
0.5224912248827285

> <Veber_Status>
Pass

> <Ghose_Violations>
3

> <Ghose_Status>
Fail

$$$$
Lycopene
  AfroDiabDB_Exporter

  0  0  0  0  0  0  0  0  0  0999 V2000
M  END
> <Compound_ID>
AFRO-0205

> <Compound_Name>
Lycopene

> <Plant_Name>
Carica papaya L.

> <Common_Name>
Papaya

> <Plant_Family>
Caricaceae

> <Plant_Part>
Leaf / Fruit

> <Country_of_Use>
Nigeria; Globally

> <PubChem_CID>
5280489

> <Canonical_SMILES>
CC(C)=CCCC(C)=CC=CC(C)=CC=CC(C)=CC=CC(C)=CC=CC(C)=CC=C(C)CCC=C(C)CCC=C(C)CCC=C(C)C

> <InChIKey>
OQMMWUQCGANEST-UHFFFAOYSA-N

> <Molecular_Formula>
C40H56

> <Molecular_Weight>
647.0879999999999

> <LogP>
15.83479999999996

> <HBD>
0

> <HBA>
0

> <TPSA>
0.0

> <Rotatable_Bonds>
21

> <Lipinski_Violations>
2

> <Lipinski_Status>
Fail

> <Reported_Activity>
Antioxidant, protective against diabetic complications

> <Assay_Target>
Free radicals, ROS

> <DOI_Reference>
10.31989/bchd.v6i6.1108

> <Reference_Year>
2023

> <Compound_Class>
Acyclic Carotenoid

> <Compound_Superclass>
Lipid

> <Data_Source>
Bioactive Compounds in Health and Disease

> <Notes>
Carotenoid antioxidant present in papaya pulp and leaves.

> <Validation_Status>
Verified

> <Fraction_CSP3>
0.4166666666666667

> <Ring_Count>
0

> <Aromatic_Ring_Count>
0

> <Heavy_Atom_Count>
48

> <Molar_Refractivity>
222.4139999999991

> <QED_Score>
0.0859621710584054

> <Veber_Status>
Fail

> <Ghose_Violations>
3

> <Ghose_Status>
Fail

$$$$
Zeaxanthin
  AfroDiabDB_Exporter

  0  0  0  0  0  0  0  0  0  0999 V2000
M  END
> <Compound_ID>
AFRO-0206

> <Compound_Name>
Zeaxanthin

> <Plant_Name>
Carica papaya L.

> <Common_Name>
Papaya

> <Plant_Family>
Caricaceae

> <Plant_Part>
Leaf / Fruit

> <Country_of_Use>
Nigeria; Globally

> <PubChem_CID>
5280899

> <Canonical_SMILES>
CC1=C(/C=C/C(C)=C/C=C/C(C)=C/C=C/C=C(C)/C=C/C=C(C)/C=C/C2=C(O)CC(C)(C)CC2)C(C)(C)CC(O)C1

> <InChIKey>
UEYVOKZPWATDOG-XZLQINKOSA-N

> <Molecular_Formula>
C40H56O2

> <Molecular_Weight>
554.8590000000004

> <LogP>
11.07219999999999

> <HBD>
2

> <HBA>
2

> <TPSA>
40.46

> <Rotatable_Bonds>
10

> <Lipinski_Violations>
2

> <Lipinski_Status>
Fail

> <Reported_Activity>
Antioxidant, protection against diabetic retinopathy

> <Assay_Target>
Retinal oxidative stress, ROS

> <DOI_Reference>
10.31989/bchd.v6i6.1108

> <Reference_Year>
2023

> <Compound_Class>
Xanthophyll Carotenoid

> <Compound_Superclass>
Lipid

> <Data_Source>
Bioactive Compounds in Health and Disease

> <Notes>
Oxygenated carotenoid in fruit and leaves.

> <Validation_Status>
Verified

> <Fraction_CSP3>
0.4358974358974359

> <Ring_Count>
2

> <Aromatic_Ring_Count>
0

> <Heavy_Atom_Count>
41

> <Molar_Refractivity>
179.7365999999995

> <QED_Score>
0.2636494198564786

> <Veber_Status>
Pass

> <Ghose_Violations>
3

> <Ghose_Status>
Fail

$$$$
beta-Carotene
  AfroDiabDB_Exporter

  0  0  0  0  0  0  0  0  0  0999 V2000
M  END
> <Compound_ID>
AFRO-0207

> <Compound_Name>
beta-Carotene

> <Plant_Name>
Carica papaya L.

> <Common_Name>
Papaya

> <Plant_Family>
Caricaceae

> <Plant_Part>
Leaf / Seed / Fruit

> <Country_of_Use>
Nigeria; Globally

> <PubChem_CID>
5280489

> <Canonical_SMILES>
CC1=C(/C=C/C(C)=C/C=C/C(C)=C/C=C/C=C(C)/C=C/C=C(C)/C=C/C2=C(C)CCCC2(C)C)C(C)(C)CCC1

> <InChIKey>
OENHQHLEOONYIE-JLTXGRSLSA-N

> <Molecular_Formula>
C40H56

> <Molecular_Weight>
536.8880000000004

> <LogP>
12.60579999999998

> <HBD>
0

> <HBA>
0

> <TPSA>
0.0

> <Rotatable_Bonds>
10

> <Lipinski_Violations>
2

> <Lipinski_Status>
Fail

> <Reported_Activity>
Antioxidant, glucose regulation, pro-vitamin A

> <Assay_Target>
Oxidative stress, lipid peroxidation

> <DOI_Reference>
10.31989/bchd.v6i6.1108

> <Reference_Year>
2023

> <Compound_Class>
Pro-vitamin A Carotenoid

> <Compound_Superclass>
Lipid

> <Data_Source>
Bioactive Compounds in Health and Disease

> <Notes>
Major hydrocarbon carotenoid across C. papaya tissues.

> <Validation_Status>
Verified

> <Fraction_CSP3>
0.45

> <Ring_Count>
2

> <Aromatic_Ring_Count>
0

> <Heavy_Atom_Count>
40

> <Molar_Refractivity>
181.3919999999994

> <QED_Score>
0.2435127020219794

> <Veber_Status>
Pass

> <Ghose_Violations>
3

> <Ghose_Status>
Fail

$$$$
Benzyl isothiocyanate
  AfroDiabDB_Exporter

  0  0  0  0  0  0  0  0  0  0999 V2000
M  END
> <Compound_ID>
AFRO-0210

> <Compound_Name>
Benzyl isothiocyanate

> <Plant_Name>
Carica papaya L.

> <Common_Name>
Papaya

> <Plant_Family>
Caricaceae

> <Plant_Part>
Seed / Root / Leaf

> <Country_of_Use>
Nigeria; Globally

> <PubChem_CID>
2346

> <Canonical_SMILES>
S=C=NCc1ccccc1

> <InChIKey>
MDKCFLQDBWCQCV-UHFFFAOYSA-N

> <Molecular_Formula>
C8H7NS

> <Molecular_Weight>
149.218

> <LogP>
2.289400000000001

> <HBD>
0

> <HBA>
2

> <TPSA>
12.36

> <Rotatable_Bonds>
2

> <Lipinski_Violations>
0

> <Lipinski_Status>
Pass

> <Reported_Activity>
Antidiabetic, insulin sensitizing, anti-inflammatory

> <Assay_Target>
Insulin receptor, NF-kB

> <DOI_Reference>
10.31989/bchd.v6i6.1108

> <Reference_Year>
2023

> <Compound_Class>
Isothiocyanate

> <Compound_Superclass>
Organosulfur Compound

> <Data_Source>
Bioactive Compounds in Health and Disease

> <Notes>
Bioactive breakdown product of benzylglucosinolate in seeds/roots.

> <Validation_Status>
Verified

> <Fraction_CSP3>
0.125

> <Ring_Count>
1

> <Aromatic_Ring_Count>
1

> <Heavy_Atom_Count>
10

> <Molar_Refractivity>
45.17200000000002

> <QED_Score>
0.4639437938300225

> <Veber_Status>
Pass

> <Ghose_Violations>
2

> <Ghose_Status>
Fail

$$$$
Ascorbic acid (Vitamin C)
  AfroDiabDB_Exporter

  0  0  0  0  0  0  0  0  0  0999 V2000
M  END
> <Compound_ID>
AFRO-0214

> <Compound_Name>
Ascorbic acid (Vitamin C)

> <Plant_Name>
Carica papaya L.

> <Common_Name>
Papaya

> <Plant_Family>
Caricaceae

> <Plant_Part>
Fruit / Leaf

> <Country_of_Use>
Nigeria; Globally

> <PubChem_CID>
54670067

> <Canonical_SMILES>
O=C1OC(C(O)CO)C(O)=C1O

> <InChIKey>
CIWBSHSKHKDKBQ-UHFFFAOYSA-N

> <Molecular_Formula>
C6H8O6

> <Molecular_Weight>
176.124

> <LogP>
-1.4074

> <HBD>
4

> <HBA>
6

> <TPSA>
107.22

> <Rotatable_Bonds>
2

> <Lipinski_Violations>
0

> <Lipinski_Status>
Pass

> <Reported_Activity>
Antioxidant, protective against diabetic oxidative stress

> <Assay_Target>
Free radicals, ROS

> <DOI_Reference>
10.31989/dsn.v1i9.991

> <Reference_Year>
2022

> <Compound_Class>
Water-soluble Vitamin

> <Compound_Superclass>
Vitamin

> <Data_Source>
Dietary Supplements and Nutraceuticals

> <Notes>
Antioxidant vitamin mitigating free radical damage associated with diabetes.

> <Validation_Status>
Verified

> <Fraction_CSP3>
0.5

> <Ring_Count>
1

> <Aromatic_Ring_Count>
0

> <Heavy_Atom_Count>
12

> <Molar_Refractivity>
35.25619999999999

> <QED_Score>
0.3850054008235984

> <Veber_Status>
Pass

> <Ghose_Violations>
3

> <Ghose_Status>
Fail

$$$$
Oleic acid
  AfroDiabDB_Exporter

  0  0  0  0  0  0  0  0  0  0999 V2000
M  END
> <Compound_ID>
AFRO-0216

> <Compound_Name>
Oleic acid

> <Plant_Name>
Carica papaya L.

> <Common_Name>
Papaya

> <Plant_Family>
Caricaceae

> <Plant_Part>
Seeds

> <Country_of_Use>
Nigeria; Globally

> <PubChem_CID>
445639

> <Canonical_SMILES>
CCCCCCCC/C=C\CCCCCCCC(=O)O

> <InChIKey>
ZQPPMHVWECSIRJ-KTKRTIGZSA-N

> <Molecular_Formula>
C18H34O2

> <Molecular_Weight>
282.4679999999999

> <LogP>
6.108500000000006

> <HBD>
1

> <HBA>
1

> <TPSA>
37.3

> <Rotatable_Bonds>
15

> <Lipinski_Violations>
1

> <Lipinski_Status>
Pass

> <Reported_Activity>
Antidiabetic, α-amylase & α-glucosidase inhibitor

> <Assay_Target>
α-Amylase, α-Glucosidase

> <DOI_Reference>
10.1016/j.crbiot.2020.11.001

> <Reference_Year>
2020

> <Compound_Class>
Monounsaturated Fatty Acid

> <Compound_Superclass>
Lipid

> <Data_Source>
Current Research in Biotechnology

> <Notes>
Bioactive seed constituent reported in Agada et al. (2020) to inhibit α-amylase and α-glucosidase enzymes.

> <Validation_Status>
Verified

> <Fraction_CSP3>
0.8333333333333334

> <Ring_Count>
0

> <Aromatic_Ring_Count>
0

> <Heavy_Atom_Count>
20

> <Molar_Refractivity>
87.08780000000007

> <QED_Score>
0.2905169417988814

> <Veber_Status>
Fail

> <Ghose_Violations>
1

> <Ghose_Status>
Fail

$$$$
11-Octadecenoic acid, methyl ester
  AfroDiabDB_Exporter

  0  0  0  0  0  0  0  0  0  0999 V2000
M  END
> <Compound_ID>
AFRO-0219

> <Compound_Name>
11-Octadecenoic acid, methyl ester

> <Plant_Name>
Carica papaya L.

> <Common_Name>
Papaya

> <Plant_Family>
Caricaceae

> <Plant_Part>
Seeds

> <Country_of_Use>
Nigeria; Globally

> <PubChem_CID>
5364522

> <Canonical_SMILES>
CCCCCC/C=C\CCCCCCCCCC(=O)OC

> <InChIKey>
PVVODBCDJBGMJL-HJWRWDBZSA-N

> <Molecular_Formula>
C19H36O2

> <Molecular_Weight>
296.4949999999999

> <LogP>
6.196900000000007

> <HBD>
0

> <HBA>
2

> <TPSA>
26.3

> <Rotatable_Bonds>
15

> <Lipinski_Violations>
1

> <Lipinski_Status>
Pass

> <Reported_Activity>
Antidiabetic seed constituent

> <Assay_Target>
α-Amylase, α-Glucosidase

> <DOI_Reference>
10.1016/j.crbiot.2020.11.001

> <Reference_Year>
2020

> <Compound_Class>
Fatty Acid Methyl Ester

> <Compound_Superclass>
Lipid

> <Data_Source>
Current Research in Biotechnology

> <Notes>
Unsaturated fatty acid ester in seed extract with documented antidiabetic enzyme inhibition.

> <Validation_Status>
Verified

> <Fraction_CSP3>
0.8421052631578947

> <Ring_Count>
0

> <Aromatic_Ring_Count>
0

> <Heavy_Atom_Count>
21

> <Molar_Refractivity>
91.46800000000007

> <QED_Score>
0.2042732572729177

> <Veber_Status>
Fail

> <Ghose_Violations>
1

> <Ghose_Status>
Fail

$$$$
β-Sitosterol
  AfroDiabDB_Exporter

  0  0  0  0  0  0  0  0  0  0999 V2000
M  END
> <Compound_ID>
AFRO-0223

> <Compound_Name>
β-Sitosterol

> <Plant_Name>
Momordica charantia

> <Common_Name>
Bitter Melon

> <Plant_Family>
Cucurbitaceae

> <Plant_Part>
Fruit; Leaf

> <Country_of_Use>
Nigeria; Globally

> <PubChem_CID>
173183

> <Canonical_SMILES>
CCC(CC(C)C)C1CCC2C3CC=C4CC(O)CCC4(C)C3CCC12C

> <InChIKey>
JXSLSBUDRMPQIU-UHFFFAOYSA-N

> <Molecular_Formula>
C28H48O

> <Molecular_Weight>
372.6370000000002

> <LogP>
6.998600000000009

> <HBD>
1

> <HBA>
1

> <TPSA>
20.23

> <Rotatable_Bonds>
4

> <Lipinski_Violations>
1

> <Lipinski_Status>
Pass

> <Reported_Activity>
Antidiabetic

> <Assay_Target>
Diabetes mellitus

> <DOI_Reference>
10.1016/j.heliyon.2022.e09253

> <Reference_Year>
2022

> <Compound_Class>
Phytosterol

> <Compound_Superclass>
Steroid

> <Data_Source>
Heliyon Review

> <Notes>
Listed phytosterol

> <Validation_Status>
Verified

> <Fraction_CSP3>
0.9230769230769231

> <Ring_Count>
4

> <Aromatic_Ring_Count>
0

> <Heavy_Atom_Count>
27

> <Molar_Refractivity>
114.4358000000001

> <QED_Score>
0.5267234060648431

> <Veber_Status>
Pass

> <Ghose_Violations>
1

> <Ghose_Status>
Fail

$$$$
Campesterol
  AfroDiabDB_Exporter

  0  0  0  0  0  0  0  0  0  0999 V2000
M  END
> <Compound_ID>
AFRO-0224

> <Compound_Name>
Campesterol

> <Plant_Name>
Momordica charantia

> <Common_Name>
Bitter Melon

> <Plant_Family>
Cucurbitaceae

> <Plant_Part>
Fruit; Leaf

> <Country_of_Use>
Nigeria; Globally

> <PubChem_CID>
5280794

> <Canonical_SMILES>
CCC(C)C(C)CCC(C)C1CCC2C3CC=C4CC(O)CCC4(C)C3CCC12C

> <InChIKey>
KBCUEZZDVQYXRC-UHFFFAOYSA-N

> <Molecular_Formula>
C29H48O

> <Molecular_Weight>
414.7180000000003

> <LogP>
8.02480000000001

> <HBD>
1

> <HBA>
1

> <TPSA>
20.23

> <Rotatable_Bonds>
6

> <Lipinski_Violations>
1

> <Lipinski_Status>
Pass

> <Reported_Activity>
Antidiabetic

> <Assay_Target>
Diabetes mellitus

> <DOI_Reference>
10.1016/j.heliyon.2022.e09253

> <Reference_Year>
2022

> <Compound_Class>
Phytosterol

> <Compound_Superclass>
Steroid

> <Data_Source>
Heliyon Review

> <Notes>
Listed phytosterol

> <Validation_Status>
Verified

> <Fraction_CSP3>
0.9310344827586207

> <Ring_Count>
4

> <Aromatic_Ring_Count>
0

> <Heavy_Atom_Count>
30

> <Molar_Refractivity>
128.2168000000001

> <QED_Score>
0.436095641737511

> <Veber_Status>
Pass

> <Ghose_Violations>
1

> <Ghose_Status>
Fail

$$$$
Stigmasterol
  AfroDiabDB_Exporter

  0  0  0  0  0  0  0  0  0  0999 V2000
M  END
> <Compound_ID>
AFRO-0225

> <Compound_Name>
Stigmasterol

> <Plant_Name>
Momordica charantia

> <Common_Name>
Bitter Melon

> <Plant_Family>
Cucurbitaceae

> <Plant_Part>
Fruit; Leaf

> <Country_of_Use>
Nigeria; Globally

> <PubChem_CID>
5742590

> <Canonical_SMILES>
CCC(C=CC(C)C1CCC2C3CC=C4CC(O)CCC4(C)C3CCC12C)C(C)C

> <InChIKey>
HCXVJBMSMIARIN-UHFFFAOYSA-N

> <Molecular_Formula>
C35H60O6

> <Molecular_Weight>
412.7020000000003

> <LogP>
7.80080000000001

> <HBD>
1

> <HBA>
1

> <TPSA>
20.23

> <Rotatable_Bonds>
5

> <Lipinski_Violations>
1

> <Lipinski_Status>
Pass

> <Reported_Activity>
Antidiabetic

> <Assay_Target>
Diabetes mellitus

> <DOI_Reference>
10.1016/j.heliyon.2022.e09253

> <Reference_Year>
2022

> <Compound_Class>
Sterol Glycoside

> <Compound_Superclass>
Steroid

> <Data_Source>
Heliyon Review

> <Notes>
Listed phytosterol

> <Validation_Status>
Verified

> <Fraction_CSP3>
0.8620689655172413

> <Ring_Count>
4

> <Aromatic_Ring_Count>
0

> <Heavy_Atom_Count>
30

> <Molar_Refractivity>
128.1228000000001

> <QED_Score>
0.4565998441610757

> <Veber_Status>
Pass

> <Ghose_Violations>
1

> <Ghose_Status>
Fail

$$$$
Daucosterol
  AfroDiabDB_Exporter

  0  0  0  0  0  0  0  0  0  0999 V2000
M  END
> <Compound_ID>
AFRO-0226

> <Compound_Name>
Daucosterol

> <Plant_Name>
Momordica charantia

> <Common_Name>
Bitter Melon

> <Plant_Family>
Cucurbitaceae

> <Plant_Part>
Fruit; Leaf

> <Country_of_Use>
Nigeria; Globally

> <PubChem_CID>
99474

> <Canonical_SMILES>
CCC(CC(C)C)C1CCC2C3CC=C4CC(OC5OC(CO)C(O)C(O)C5O)CCC4(C)C3CCC12C

> <InChIKey>
YQLINUKMXMQEAV-UHFFFAOYSA-N

> <Molecular_Formula>
C27H42O3

> <Molecular_Weight>
534.7780000000002

> <LogP>
4.822800000000004

> <HBD>
4

> <HBA>
6

> <TPSA>
99.38000000000001

> <Rotatable_Bonds>
7

> <Lipinski_Violations>
1

> <Lipinski_Status>
Pass

> <Reported_Activity>
Antidiabetic

> <Assay_Target>
Diabetes mellitus

> <DOI_Reference>
10.1016/j.heliyon.2022.e09253

> <Reference_Year>
2022

> <Compound_Class>
Steroidal Sapogenin

> <Compound_Superclass>
Steroid

> <Data_Source>
Heliyon Review

> <Notes>
Listed phytosterol

> <Validation_Status>
Verified

> <Fraction_CSP3>
0.9375

> <Ring_Count>
5

> <Aromatic_Ring_Count>
0

> <Heavy_Atom_Count>
38

> <Molar_Refractivity>
147.0691999999999

> <QED_Score>
0.3495907122229384

> <Veber_Status>
Pass

> <Ghose_Violations>
2

> <Ghose_Status>
Fail

$$$$
Diosgenin
  AfroDiabDB_Exporter

  0  0  0  0  0  0  0  0  0  0999 V2000
M  END
> <Compound_ID>
AFRO-0227

> <Compound_Name>
Diosgenin

> <Plant_Name>
Momordica charantia

> <Common_Name>
Bitter Melon

> <Plant_Family>
Cucurbitaceae

> <Plant_Part>
Fruit; Leaf

> <Country_of_Use>
Nigeria; Globally

> <PubChem_CID>
370

> <Canonical_SMILES>
CC1CCC2(O1)C(C)C1C2C2C3CC=C4CC(O)CCC4(C)C3CCC21C

> <InChIKey>
UDTICYZPUZVFAD-UHFFFAOYSA-N

> <Molecular_Formula>
C7H6O5

> <Molecular_Weight>
370.5770000000002

> <LogP>
5.349700000000006

> <HBD>
1

> <HBA>
2

> <TPSA>
29.46

> <Rotatable_Bonds>
0

> <Lipinski_Violations>
1

> <Lipinski_Status>
Pass

> <Reported_Activity>
Antioxidant, Antidiabetic

> <Assay_Target>
Diabetes mellitus

> <DOI_Reference>
10.1016/j.heliyon.2022.e09253

> <Reference_Year>
2022

> <Compound_Class>
Phenolic Acid

> <Compound_Superclass>
Phenolic Compound

> <Data_Source>
Heliyon Review

> <Notes>
Phenolic constituent

> <Validation_Status>
Verified

> <Fraction_CSP3>
0.92

> <Ring_Count>
6

> <Aromatic_Ring_Count>
0

> <Heavy_Atom_Count>
27

> <Molar_Refractivity>
107.1318000000001

> <QED_Score>
0.5825071268280678

> <Veber_Status>
Pass

> <Ghose_Violations>
0

> <Ghose_Status>
Pass

$$$$
Chlorogenic Acid
  AfroDiabDB_Exporter

  0  0  0  0  0  0  0  0  0  0999 V2000
M  END
> <Compound_ID>
AFRO-0229

> <Compound_Name>
Chlorogenic Acid

> <Plant_Name>
Momordica charantia

> <Common_Name>
Bitter Melon

> <Plant_Family>
Cucurbitaceae

> <Plant_Part>
Fruit; Leaf

> <Country_of_Use>
Nigeria; Globally

> <PubChem_CID>
689043

> <Canonical_SMILES>
O=C(C=Cc1ccc(O)c(O)c1)OC1CC(O)(C(=O)O)CCC1O

> <InChIKey>
DNVVQXSLOPCIJD-UHFFFAOYSA-N

> <Molecular_Formula>
C9H8O4

> <Molecular_Weight>
338.312

> <LogP>
0.3833

> <HBD>
5

> <HBA>
7

> <TPSA>
144.52

> <Rotatable_Bonds>
4

> <Lipinski_Violations>
0

> <Lipinski_Status>
Pass

> <Reported_Activity>
Antioxidant, Antidiabetic

> <Assay_Target>
Diabetes mellitus

> <DOI_Reference>
10.1016/j.heliyon.2022.e09253

> <Reference_Year>
2022

> <Compound_Class>
Phenolic Acid

> <Compound_Superclass>
Phenolic Compound

> <Data_Source>
Heliyon Review

> <Notes>
Phenolic constituent

> <Validation_Status>
Verified

> <Fraction_CSP3>
0.375

> <Ring_Count>
2

> <Aromatic_Ring_Count>
1

> <Heavy_Atom_Count>
24

> <Molar_Refractivity>
81.12900000000002

> <QED_Score>
0.300988355449203

> <Veber_Status>
Fail

> <Ghose_Violations>
0

> <Ghose_Status>
Pass

$$$$
Ellagic Acid
  AfroDiabDB_Exporter

  0  0  0  0  0  0  0  0  0  0999 V2000
M  END
> <Compound_ID>
AFRO-0237

> <Compound_Name>
Ellagic Acid

> <Plant_Name>
Momordica charantia

> <Common_Name>
Bitter Melon

> <Plant_Family>
Cucurbitaceae

> <Plant_Part>
Fruit; Leaf

> <Country_of_Use>
Ghana; Egypt; Nigeria

> <PubChem_CID>
445858

> <Canonical_SMILES>
O=c1oc2c(O)c(O)cc3c(=O)oc4cc(O)cc1c4c23

> <InChIKey>
CEHLIOFGANXOMT-UHFFFAOYSA-N

> <Molecular_Formula>
C10H10O4

> <Molecular_Weight>
286.1949999999999

> <LogP>
1.6072

> <HBD>
3

> <HBA>
7

> <TPSA>
121.11

> <Rotatable_Bonds>
0

> <Lipinski_Violations>
0

> <Lipinski_Status>
Pass

> <Reported_Activity>
Antioxidant

> <Assay_Target>
Oxidative stress

> <DOI_Reference>
10.1016/j.heliyon.2022.e09253

> <Reference_Year>
2022

> <Compound_Class>
Phenolic Acid

> <Compound_Superclass>
Phenolic Compound

> <Data_Source>
Heliyon Review

> <Notes>
Phenolic constituent

> <Validation_Status>
Verified

> <Fraction_CSP3>
0.0

> <Ring_Count>
4

> <Aromatic_Ring_Count>
4

> <Heavy_Atom_Count>
21

> <Molar_Refractivity>
72.2124

> <QED_Score>
0.2548378843868956

> <Veber_Status>
Pass

> <Ghose_Violations>
0

> <Ghose_Status>
Pass

$$$$
Ferulic Acid
  AfroDiabDB_Exporter

  0  0  0  0  0  0  0  0  0  0999 V2000
M  END
> <Compound_ID>
AFRO-0238

> <Compound_Name>
Ferulic Acid

> <Plant_Name>
Momordica charantia

> <Common_Name>
Bitter Melon

> <Plant_Family>
Cucurbitaceae

> <Plant_Part>
Fruit; Leaf

> <Country_of_Use>
Ghana; Egypt; Nigeria

> <PubChem_CID>
72

> <Canonical_SMILES>
COc1cc(C=CC(=O)O)ccc1O

> <InChIKey>
KSEBMYQBYZTDHS-UHFFFAOYSA-N

> <Molecular_Formula>
C7H6O4

> <Molecular_Weight>
194.186

> <LogP>
1.4986

> <HBD>
2

> <HBA>
3

> <TPSA>
66.76

> <Rotatable_Bonds>
3

> <Lipinski_Violations>
0

> <Lipinski_Status>
Pass

> <Reported_Activity>
Antioxidant

> <Assay_Target>
Oxidative stress

> <DOI_Reference>
10.1016/j.heliyon.2022.e09253

> <Reference_Year>
2022

> <Compound_Class>
Phenolic Acid

> <Compound_Superclass>
Phenolic Compound

> <Data_Source>
Heliyon Review

> <Notes>
Phenolic constituent

> <Validation_Status>
Verified

> <Fraction_CSP3>
0.1

> <Ring_Count>
1

> <Aromatic_Ring_Count>
1

> <Heavy_Atom_Count>
14

> <Molar_Refractivity>
51.32860000000002

> <QED_Score>
0.715320210715463

> <Veber_Status>
Pass

> <Ghose_Violations>
1

> <Ghose_Status>
Fail

$$$$
Vanillic Acid
  AfroDiabDB_Exporter

  0  0  0  0  0  0  0  0  0  0999 V2000
M  END
> <Compound_ID>
AFRO-0240

> <Compound_Name>
Vanillic Acid

> <Plant_Name>
Momordica charantia

> <Common_Name>
Bitter Melon

> <Plant_Family>
Cucurbitaceae

> <Plant_Part>
Fruit; Leaf

> <Country_of_Use>
Ghana; Egypt; Nigeria

> <PubChem_CID>
637542

> <Canonical_SMILES>
COc1cc(C(=O)O)ccc1O

> <InChIKey>
WKOLLVMJNQIZCI-UHFFFAOYSA-N

> <Molecular_Formula>
C9H8O3

> <Molecular_Weight>
168.148

> <LogP>
1.099

> <HBD>
2

> <HBA>
3

> <TPSA>
66.76

> <Rotatable_Bonds>
2

> <Lipinski_Violations>
0

> <Lipinski_Status>
Pass

> <Reported_Activity>
Antioxidant

> <Assay_Target>
Oxidative stress

> <DOI_Reference>
10.1016/j.heliyon.2022.e09253

> <Reference_Year>
2022

> <Compound_Class>
Phenolic Acid

> <Compound_Superclass>
Phenolic Compound

> <Data_Source>
Heliyon Review

> <Notes>
Phenolic constituent

> <Validation_Status>
Verified

> <Fraction_CSP3>
0.125

> <Ring_Count>
1

> <Aromatic_Ring_Count>
1

> <Heavy_Atom_Count>
12

> <Molar_Refractivity>
41.61810000000001

> <QED_Score>
0.6933988517563217

> <Veber_Status>
Pass

> <Ghose_Violations>
1

> <Ghose_Status>
Fail

$$$$
p-Coumaric Acid
  AfroDiabDB_Exporter

  0  0  0  0  0  0  0  0  0  0999 V2000
M  END
> <Compound_ID>
AFRO-0241

> <Compound_Name>
p-Coumaric Acid

> <Plant_Name>
Momordica charantia

> <Common_Name>
Bitter Melon

> <Plant_Family>
Cucurbitaceae

> <Plant_Part>
Fruit; Leaf

> <Country_of_Use>
Ghana; Egypt; Nigeria

> <PubChem_CID>
5281672

> <Canonical_SMILES>
O=C(O)C=Cc1ccc(O)cc1

> <InChIKey>
NGSWKAQJJWESNS-UHFFFAOYSA-N

> <Molecular_Formula>
C15H10O8

> <Molecular_Weight>
164.16

> <LogP>
1.49

> <HBD>
2

> <HBA>
2

> <TPSA>
57.53

> <Rotatable_Bonds>
2

> <Lipinski_Violations>
0

> <Lipinski_Status>
Pass

> <Reported_Activity>
Antioxidant

> <Assay_Target>
Oxidative stress

> <DOI_Reference>
10.1016/j.heliyon.2022.e09253

> <Reference_Year>
2022

> <Compound_Class>
Flavonoid

> <Compound_Superclass>
Flavonoid

> <Data_Source>
Heliyon Review

> <Notes>
Phenolic constituent

> <Validation_Status>
Verified

> <Fraction_CSP3>
0.0

> <Ring_Count>
1

> <Aromatic_Ring_Count>
1

> <Heavy_Atom_Count>
12

> <Molar_Refractivity>
44.77660000000001

> <QED_Score>
0.65083387330713

> <Veber_Status>
Pass

> <Ghose_Violations>
1

> <Ghose_Status>
Fail

$$$$
Convallatoxin
  AfroDiabDB_Exporter

  0  0  0  0  0  0  0  0  0  0999 V2000
M  END
> <Compound_ID>
AFRO-0243

> <Compound_Name>
Convallatoxin

> <Plant_Name>
Parquetina nigrescens

> <Common_Name>
Ogbo

> <Plant_Family>
Asclepiadaceae

> <Plant_Part>
Fruits, Leave

> <Country_of_Use>
Nigeria

> <PubChem_CID>
443926

> <Canonical_SMILES>
CC1OC(OC2CC(O)C3(O)C(CCC4C3CCC3(C=O)C(C5=CC(=O)OC5)C(O)CC43O)C2)C(O)C(O)C1O

> <InChIKey>
UUGRGPZFFDJCDI-UHFFFAOYSA-N

> <Molecular_Formula>
C29H42O10

> <Molecular_Weight>
568.6160000000006

> <LogP>
-1.698499999999997

> <HBD>
7

> <HBA>
12

> <TPSA>
203.44

> <Rotatable_Bonds>
4

> <Lipinski_Violations>
3

> <Lipinski_Status>
Fail

> <Reported_Activity>
Antidiabetic constituent

> <Assay_Target>
Not specified

> <DOI_Reference>
10.1177/11779322231223857

> <Reference_Year>
2024

> <Compound_Class>
Cardiac glycoside

> <Compound_Superclass>
Steroid

> <Data_Source>
Literature cited in paper

> <Notes>
Previously isolated from ethyl acetate root bark fraction.

> <Validation_Status>
Verified

> <Fraction_CSP3>
0.8571428571428571

> <Ring_Count>
6

> <Aromatic_Ring_Count>
0

> <Heavy_Atom_Count>
40

> <Molar_Refractivity>
132.9596000000002

> <QED_Score>
0.115246653051886

> <Veber_Status>
Fail

> <Ghose_Violations>
3

> <Ghose_Status>
Fail

$$$$
Nigrescigenin
  AfroDiabDB_Exporter

  0  0  0  0  0  0  0  0  0  0999 V2000
M  END
> <Compound_ID>
AFRO-0244

> <Compound_Name>
Nigrescigenin

> <Plant_Name>
Parquetina nigrescens

> <Common_Name>
Ogbo

> <Plant_Family>
Asclepiadaceae

> <Plant_Part>
Fruits, Leave

> <Country_of_Use>
Nigeria

> <PubChem_CID>
101855610

> <Canonical_SMILES>
CC12CCC(O)CC1C1CCC3(O)C(C4=CC(=O)OC4)CCC3(O)C1=CC2=O

> <InChIKey>
GWNHTBQCFJLWJT-UHFFFAOYSA-N

> <Molecular_Formula>
C23H32O6

> <Molecular_Weight>
388.4600000000001

> <LogP>
1.4282

> <HBD>
3

> <HBA>
6

> <TPSA>
104.06

> <Rotatable_Bonds>
1

> <Lipinski_Violations>
0

> <Lipinski_Status>
Pass

> <Reported_Activity>
Not specified

> <Assay_Target>
Not specified

> <DOI_Reference>
10.1177/11779322231223857

> <Reference_Year>
2024

> <Compound_Class>
Steroidal constituent

> <Compound_Superclass>
Steroid

> <Data_Source>
Literature cited in paper

> <Notes>
Previously isolated compound.

> <Validation_Status>
Verified

> <Fraction_CSP3>
0.7272727272727273

> <Ring_Count>
5

> <Aromatic_Ring_Count>
0

> <Heavy_Atom_Count>
28

> <Molar_Refractivity>
98.93440000000004

> <QED_Score>
0.5872753221734899

> <Veber_Status>
Pass

> <Ghose_Violations>
0

> <Ghose_Status>
Pass

$$$$
Periplogenin
  AfroDiabDB_Exporter

  0  0  0  0  0  0  0  0  0  0999 V2000
M  END
> <Compound_ID>
AFRO-0245

> <Compound_Name>
Periplogenin

> <Plant_Name>
Parquetina nigrescens

> <Common_Name>
Ogbo

> <Plant_Family>
Asclepiadaceae

> <Plant_Part>
Fruits, Leave

> <Country_of_Use>
Nigeria

> <PubChem_CID>
441829

> <Canonical_SMILES>
CC12CCC(O)CC1C1CCC3(O)C(C4=CC(=O)OC4)CCC3(O)C1CCC2O

> <InChIKey>
SOSFBBHTXJATJS-UHFFFAOYSA-N

> <Molecular_Formula>
C23H34O5

> <Molecular_Weight>
406.5190000000001

> <LogP>
1.69

> <HBD>
4

> <HBA>
6

> <TPSA>
107.22

> <Rotatable_Bonds>
1

> <Lipinski_Violations>
0

> <Lipinski_Status>
Pass

> <Reported_Activity>
Not specified

> <Assay_Target>
Not specified

> <DOI_Reference>
10.1177/11779322231223857

> <Reference_Year>
2024

> <Compound_Class>
Steroidal constituent

> <Compound_Superclass>
Steroid

> <Data_Source>
Literature cited in paper

> <Notes>
Previously isolated compound.

> <Validation_Status>
Verified

> <Fraction_CSP3>
0.8695652173913043

> <Ring_Count>
5

> <Aromatic_Ring_Count>
0

> <Heavy_Atom_Count>
29

> <Molar_Refractivity>
104.5752000000001

> <QED_Score>
0.4938715723894149

> <Veber_Status>
Pass

> <Ghose_Violations>
0

> <Ghose_Status>
Pass

$$$$
Strophantidin
  AfroDiabDB_Exporter

  0  0  0  0  0  0  0  0  0  0999 V2000
M  END
> <Compound_ID>
AFRO-0246

> <Compound_Name>
Strophantidin

> <Plant_Name>
Parquetina nigrescens

> <Common_Name>
Ogbo

> <Plant_Family>
Asclepiadaceae

> <Plant_Part>
Fruits, Leave

> <Country_of_Use>
Nigeria

> <PubChem_CID>
441865

> <Canonical_SMILES>
O=CC12CCC3C4CC(O)C(O)CC4(O)CCC3C1(O)CC(O)C2C1=CC(=O)OC1

> <InChIKey>
ORYGYPKFKSBNAN-UHFFFAOYSA-N

> <Molecular_Formula>
C23H32O6

> <Molecular_Weight>
422.4740000000001

> <LogP>
-0.5503

> <HBD>
5

> <HBA>
8

> <TPSA>
144.52

> <Rotatable_Bonds>
2

> <Lipinski_Violations>
0

> <Lipinski_Status>
Pass

> <Reported_Activity>
Not specified

> <Assay_Target>
Not specified

> <DOI_Reference>
10.1177/11779322231223857

> <Reference_Year>
2024

> <Compound_Class>
Cardiac glycoside

> <Compound_Superclass>
Steroid

> <Data_Source>
Literature cited in paper

> <Notes>
Previously isolated compound.

> <Validation_Status>
Verified

> <Fraction_CSP3>
0.8181818181818182

> <Ring_Count>
5

> <Aromatic_Ring_Count>
0

> <Heavy_Atom_Count>
30

> <Molar_Refractivity>
101.738

> <QED_Score>
0.2944869127014068

> <Veber_Status>
Fail

> <Ghose_Violations>
1

> <Ghose_Status>
Fail

$$$$
Strophantidol
  AfroDiabDB_Exporter

  0  0  0  0  0  0  0  0  0  0999 V2000
M  END
> <Compound_ID>
AFRO-0247

> <Compound_Name>
Strophantidol

> <Plant_Name>
Parquetina nigrescens

> <Common_Name>
Ogbo

> <Plant_Family>
Asclepiadaceae

> <Plant_Part>
Fruits, Leave

> <Country_of_Use>
Nigeria

> <PubChem_CID>
119827

> <Canonical_SMILES>
O=C1C=C(C2C(O)CC3(O)C4CCC5(O)CC(O)C(O)CC5C4CCC23CO)CO1

> <InChIKey>
ZBENKQSDTNNGCC-UHFFFAOYSA-N

> <Molecular_Formula>
C23H34O6

> <Molecular_Weight>
424.4900000000001

> <LogP>
-0.7568999999999996

> <HBD>
6

> <HBA>
8

> <TPSA>
147.68

> <Rotatable_Bonds>
2

> <Lipinski_Violations>
1

> <Lipinski_Status>
Pass

> <Reported_Activity>
Not specified

> <Assay_Target>
Not specified

> <DOI_Reference>
10.1177/11779322231223857

> <Reference_Year>
2024

> <Compound_Class>
Cardiac glycoside

> <Compound_Superclass>
Steroid

> <Data_Source>
Literature cited in paper

> <Notes>
Previously isolated compound.

> <Validation_Status>
Verified

> <Fraction_CSP3>
0.8636363636363636

> <Ring_Count>
5

> <Aromatic_Ring_Count>
0

> <Heavy_Atom_Count>
30

> <Molar_Refractivity>
102.7598

> <QED_Score>
0.3171966888455504

> <Veber_Status>
Fail

> <Ghose_Violations>
1

> <Ghose_Status>
Fail

$$$$
16-Acetyl strophantidin
  AfroDiabDB_Exporter

  0  0  0  0  0  0  0  0  0  0999 V2000
M  END
> <Compound_ID>
AFRO-0248

> <Compound_Name>
16-Acetyl strophantidin

> <Plant_Name>
Parquetina nigrescens

> <Common_Name>
Ogbo

> <Plant_Family>
Asclepiadaceae

> <Plant_Part>
Fruits, Leave

> <Country_of_Use>
Nigeria

> <PubChem_CID>
12305342

> <Canonical_SMILES>
CC(=O)OC1CC2(CC1O)C(O)CCC1C2CCC2(C=O)C(C3=CC(=O)OC3)C(O)CC12O

> <InChIKey>
ZNZLHRPHHUBAFA-UHFFFAOYSA-N

> <Molecular_Formula>
C25H34O7

> <Molecular_Weight>
464.5110000000002

> <LogP>
0.02049999999999996

> <HBD>
4

> <HBA>
9

> <TPSA>
150.59

> <Rotatable_Bonds>
3

> <Lipinski_Violations>
0

> <Lipinski_Status>
Pass

> <Reported_Activity>
Not specified

> <Assay_Target>
Not specified

> <DOI_Reference>
10.1177/11779322231223857

> <Reference_Year>
2024

> <Compound_Class>
Cardiac glycoside derivative

> <Compound_Superclass>
Steroid

> <Data_Source>
Literature cited in paper

> <Notes>
Previously isolated compound.

> <Validation_Status>
Verified

> <Fraction_CSP3>
0.7916666666666666

> <Ring_Count>
5

> <Aromatic_Ring_Count>
0

> <Heavy_Atom_Count>
33

> <Molar_Refractivity>
111.2852000000001

> <QED_Score>
0.334688300080392

> <Veber_Status>
Fail

> <Ghose_Violations>
0

> <Ghose_Status>
Pass

$$$$
16-Hydrostrophantidin
  AfroDiabDB_Exporter

  0  0  0  0  0  0  0  0  0  0999 V2000
M  END
> <Compound_ID>
AFRO-0249

> <Compound_Name>
16-Hydrostrophantidin

> <Plant_Name>
Parquetina nigrescens

> <Common_Name>
Ogbo

> <Plant_Family>
Asclepiadaceae

> <Plant_Part>
Fruits, Leave

> <Country_of_Use>
Nigeria

> <PubChem_CID>
101340

> <Canonical_SMILES>
O=CC12CCC3C4CC(O)C(O)CC4(O)CCC3C1(O)C(O)C(O)C2C1=CC(=O)OC1

> <InChIKey>
KQKAXZOXYXQJKW-UHFFFAOYSA-N

> <Molecular_Formula>
C23H32O7

> <Molecular_Weight>
438.4730000000001

> <LogP>
-1.579499999999999

> <HBD>
6

> <HBA>
9

> <TPSA>
164.75

> <Rotatable_Bonds>
2

> <Lipinski_Violations>
1

> <Lipinski_Status>
Pass

> <Reported_Activity>
Not specified

> <Assay_Target>
Not specified

> <DOI_Reference>
10.1177/11779322231223857

> <Reference_Year>
2024

> <Compound_Class>
Cardiac glycoside derivative

> <Compound_Superclass>
Steroid

> <Data_Source>
Literature cited in paper

> <Notes>
Previously isolated compound.

> <Validation_Status>
Verified

> <Fraction_CSP3>
0.8181818181818182

> <Ring_Count>
5

> <Aromatic_Ring_Count>
0

> <Heavy_Atom_Count>
31

> <Molar_Refractivity>
103.1278

> <QED_Score>
0.220426800593114

> <Veber_Status>
Fail

> <Ghose_Violations>
1

> <Ghose_Status>
Fail

$$$$
Noradrenaline
  AfroDiabDB_Exporter

  0  0  0  0  0  0  0  0  0  0999 V2000
M  END
> <Compound_ID>
AFRO-0250

> <Compound_Name>
Noradrenaline

> <Plant_Name>
Parquetina nigrescens

> <Common_Name>
Ogbo

> <Plant_Family>
Asclepiadaceae

> <Plant_Part>
Fruits, Leave

> <Country_of_Use>
Nigeria

> <PubChem_CID>
439260

> <Canonical_SMILES>
NCC(O)c1ccc(O)c(O)c1

> <InChIKey>
SFLSHLFXELFNJZ-UHFFFAOYSA-N

> <Molecular_Formula>
C8H11NO3

> <Molecular_Weight>
169.18

> <LogP>
0.08989999999999976

> <HBD>
4

> <HBA>
4

> <TPSA>
86.71000000000001

> <Rotatable_Bonds>
2

> <Lipinski_Violations>
0

> <Lipinski_Status>
Pass

> <Reported_Activity>
Not specified

> <Assay_Target>
Not specified

> <DOI_Reference>
10.1177/11779322231223857

> <Reference_Year>
2024

> <Compound_Class>
Catecholamine alkaloid

> <Compound_Superclass>
Alkaloid

> <Data_Source>
Literature cited in paper

> <Notes>
Previously isolated compound.

> <Validation_Status>
Verified

> <Fraction_CSP3>
0.25

> <Ring_Count>
1

> <Aromatic_Ring_Count>
1

> <Heavy_Atom_Count>
12

> <Molar_Refractivity>
43.78580000000002

> <QED_Score>
0.4724272074622586

> <Veber_Status>
Pass

> <Ghose_Violations>
1

> <Ghose_Status>
Fail

$$$$
Cymarin
  AfroDiabDB_Exporter

  0  0  0  0  0  0  0  0  0  0999 V2000
M  END
> <Compound_ID>
AFRO-0251

> <Compound_Name>
Cymarin

> <Plant_Name>
Parquetina nigrescens

> <Common_Name>
Ogbo

> <Plant_Family>
Asclepiadaceae

> <Plant_Part>
Fruits, Leave

> <Country_of_Use>
Nigeria

> <PubChem_CID>
441853

> <Canonical_SMILES>
COC1CC(O)C(C)OC1OC1CC(O)C2(O)C(CCC3C2CCC2(C=O)C(C4=CC(=O)OC4)C(O)CC32O)C1

> <InChIKey>
KPBTWNPMSZFFSH-UHFFFAOYSA-N

> <Molecular_Formula>
C30H44O9

> <Molecular_Weight>
566.6440000000003

> <LogP>
-0.01519999999999766

> <HBD>
5

> <HBA>
11

> <TPSA>
172.21

> <Rotatable_Bonds>
5

> <Lipinski_Violations>
2

> <Lipinski_Status>
Fail

> <Reported_Activity>
Not specified

> <Assay_Target>
Not specified

> <DOI_Reference>
10.1177/11779322231223857

> <Reference_Year>
2024

> <Compound_Class>
Cardiac glycoside

> <Compound_Superclass>
Steroid

> <Data_Source>
Literature cited in paper

> <Notes>
Previously isolated compound.

> <Validation_Status>
Verified

> <Fraction_CSP3>
0.8620689655172413

> <Ring_Count>
6

> <Aromatic_Ring_Count>
0

> <Heavy_Atom_Count>
40

> <Molar_Refractivity>
136.3600000000001

> <QED_Score>
0.1720757387339126

> <Veber_Status>
Fail

> <Ghose_Violations>
2

> <Ghose_Status>
Fail

$$$$
Vicine
  AfroDiabDB_Exporter

  0  0  0  0  0  0  0  0  0  0999 V2000
M  END
> <Compound_ID>
AFRO-0252

> <Compound_Name>
Vicine

> <Plant_Name>
Momordica charantia

> <Common_Name>
Bitter Melon

> <Plant_Family>
Cucurbitaceae

> <Plant_Part>
Fruits, Leave

> <Country_of_Use>
Nigeria

> <PubChem_CID>
115132

> <Canonical_SMILES>
Nc1nc(OC2OC(CO)C(O)C(O)C2O)c(N)c(=O)[nH]1

> <InChIKey>
WPKPQPCFEWJAEH-UHFFFAOYSA-N

> <Molecular_Formula>
C10H16N4O7

> <Molecular_Weight>
304.259

> <LogP>
-3.886999999999999

> <HBD>
7

> <HBA>
10

> <TPSA>
197.17

> <Rotatable_Bonds>
3

> <Lipinski_Violations>
1

> <Lipinski_Status>
Pass

> <Reported_Activity>
Blood glucose lowering activity

> <Assay_Target>
Insulin regulation

> <DOI_Reference>
10.1016/j.heliyon.2022.e09253

> <Reference_Year>
2022

> <Compound_Class>
Pyrimidine Glycoside

> <Compound_Superclass>
Glycoside

> <Data_Source>
Review Article

> <Notes>
One of the best-known antidiabetic constituents

> <Validation_Status>
Verified

> <Fraction_CSP3>
0.6

> <Ring_Count>
2

> <Aromatic_Ring_Count>
1

> <Heavy_Atom_Count>
21

> <Molar_Refractivity>
68.0777

> <QED_Score>
0.2895938157052904

> <Veber_Status>
Fail

> <Ghose_Violations>
1

> <Ghose_Status>
Fail

$$$$
Combretin B
  AfroDiabDB_Exporter

  0  0  0  0  0  0  0  0  0  0999 V2000
M  END
> <Compound_ID>
AFRO-0253

> <Compound_Name>
Combretin B

> <Plant_Name>
Combretum zeyheri

> <Common_Name>
Large-fruited Bushwillow

> <Plant_Family>
Combretaceae

> <Plant_Part>
Fruits, Leave

> <Country_of_Use>
Zimbabwe

> <PubChem_CID>
101602492

> <Canonical_SMILES>
COc1ccc(CCc2cc(O)c(OC)c(O)c2)cc1O

> <InChIKey>
KUGBWOHCOLRCPN-UHFFFAOYSA-N

> <Molecular_Formula>
C18H20O6

> <Molecular_Weight>
290.3149999999999

> <LogP>
2.605800000000002

> <HBD>
3

> <HBA>
5

> <TPSA>
79.15

> <Rotatable_Bonds>
5

> <Lipinski_Violations>
0

> <Lipinski_Status>
Pass

> <Reported_Activity>
Antidiabetic activity

> <Assay_Target>
Multiple diabetes targets

> <DOI_Reference>
10.1016/j.sajb.2021.11.018

> <Reference_Year>
2022

> <Compound_Class>
Triterpenoid

> <Compound_Superclass>
Terpenoid

> <Data_Source>
Review article

> <Notes>
Listed among the most promising African antidiabetic compounds

> <Validation_Status>
Verified

> <Fraction_CSP3>
0.25

> <Ring_Count>
2

> <Aromatic_Ring_Count>
2

> <Heavy_Atom_Count>
21

> <Molar_Refractivity>
78.39040000000003

> <QED_Score>
0.788539634717775

> <Veber_Status>
Pass

> <Ghose_Violations>
0

> <Ghose_Status>
Pass

$$$$
